
     RDKit          3D

  0  0  0  0  0  0  0  0  0  0999 V3000
M  V30 BEGIN CTAB
M  V30 COUNTS 30 32 0 0 0
M  V30 BEGIN ATOM
M  V30 1 C 0.0789 -2.7467 -0.0551 0
M  V30 2 C -1.1509 -2.0869 -0.0390 0
M  V30 3 C -1.2052 -0.6826 -0.0116 0
M  V30 4 C -0.0013 0.0464 0.0004 0
M  V30 5 C 1.2424 -0.6122 -0.0162 0
M  V30 6 C 1.2689 -2.0173 -0.0436 0
M  V30 7 C 2.5079 0.1657 -0.0029 0
M  V30 8 C 3.6035 -0.2601 0.7680 0
M  V30 9 C 4.7837 0.4874 0.7661 0
M  V30 10 N 4.8730 1.6205 0.0215 0
M  V30 11 C 3.8327 2.0587 -0.7348 0
M  V30 12 C 2.6336 1.3426 -0.7614 0
M  V30 13 C -2.5133 0.0212 0.0067 0
M  V30 14 C -3.5797 -0.4669 0.7816 0
M  V30 15 C -4.8009 0.2115 0.7843 0
M  V30 16 N -4.9580 1.3376 0.0403 0
M  V30 17 C -3.9475 1.8349 -0.7199 0
M  V30 18 C -2.7093 1.1889 -0.7511 0
M  V30 19 H 0.1100 -3.8283 -0.0844 0
M  V30 20 H -2.0597 -2.6749 -0.0667 0
M  V30 21 H -0.0323 1.1274 0.0585 0
M  V30 22 H 2.2098 -2.5521 -0.0748 0
M  V30 23 H 3.5429 -1.1514 1.3797 0
M  V30 24 H 5.6289 0.1672 1.3606 0
M  V30 25 H 3.9370 2.9629 -1.3195 0
M  V30 26 H 1.8200 1.6961 -1.3823 0
M  V30 27 H -3.4656 -1.3531 1.3930 0
M  V30 28 H -5.6240 -0.1567 1.3820 0
M  V30 29 H -4.1058 2.7316 -1.3040 0
M  V30 30 H -1.9197 1.5886 -1.3751 0
M  V30 END ATOM
M  V30 BEGIN BOND
M  V30 1 2 1 2
M  V30 2 1 2 3
M  V30 3 2 3 4
M  V30 4 1 4 5
M  V30 5 2 5 6
M  V30 6 1 5 7
M  V30 7 2 7 8
M  V30 8 1 8 9
M  V30 9 2 9 10
M  V30 10 1 10 11
M  V30 11 2 11 12
M  V30 12 1 3 13
M  V30 13 2 13 14
M  V30 14 1 14 15
M  V30 15 2 15 16
M  V30 16 1 16 17
M  V30 17 2 17 18
M  V30 18 1 6 1
M  V30 19 1 12 7
M  V30 20 1 18 13
M  V30 21 1 1 19
M  V30 22 1 2 20
M  V30 23 1 4 21
M  V30 24 1 6 22
M  V30 25 1 8 23
M  V30 26 1 9 24
M  V30 27 1 11 25
M  V30 28 1 12 26
M  V30 29 1 14 27
M  V30 30 1 15 28
M  V30 31 1 17 29
M  V30 32 1 18 30
M  V30 END BOND
M  V30 END CTAB
M  END

$$$$
