
     RDKit          3D

  0  0  0  0  0  0  0  0  0  0999 V3000
M  V30 BEGIN CTAB
M  V30 COUNTS 30 32 0 0 0
M  V30 BEGIN ATOM
M  V30 1 C -0.1048 -1.0487 -2.5467 0
M  V30 2 C 1.1292 -0.7375 -1.9737 0
M  V30 3 C 1.1967 -0.2000 -0.6766 0
M  V30 4 C 0.0017 0.0182 0.0342 0
M  V30 5 C -1.2462 -0.2927 -0.5375 0
M  V30 6 C -1.2859 -0.8292 -1.8361 0
M  V30 7 C -2.5022 -0.0594 0.2207 0
M  V30 8 C -2.6629 1.0980 1.0023 0
M  V30 9 C -3.8523 1.2979 1.7071 0
M  V30 10 N -4.8495 0.3774 1.6384 0
M  V30 11 C -4.7256 -0.7516 0.8926 0
M  V30 12 C -3.5537 -0.9910 0.1710 0
M  V30 13 C 2.5093 0.1308 -0.0647 0
M  V30 14 C 3.6157 -0.7189 -0.2376 0
M  V30 15 C 4.8405 -0.3886 0.3475 0
M  V30 16 N 4.9626 0.7496 1.0795 0
M  V30 17 C 3.9129 1.5923 1.2650 0
M  V30 18 C 2.6697 1.3002 0.6988 0
M  V30 19 H -0.1465 -1.4546 -3.5493 0
M  V30 20 H 2.0299 -0.9001 -2.5523 0
M  V30 21 H 0.0451 0.3977 1.0478 0
M  V30 22 H -2.2314 -1.0618 -2.3095 0
M  V30 23 H -1.8847 1.8490 1.0542 0
M  V30 24 H -3.9837 2.1885 2.3070 0
M  V30 25 H -5.5367 -1.4668 0.8618 0
M  V30 26 H -3.4642 -1.9034 -0.4050 0
M  V30 27 H 3.5308 -1.6379 -0.8037 0
M  V30 28 H 5.6946 -1.0406 0.2217 0
M  V30 29 H 4.0437 2.4927 1.8502 0
M  V30 30 H 1.8479 1.9905 0.8419 0
M  V30 END ATOM
M  V30 BEGIN BOND
M  V30 1 2 1 2
M  V30 2 1 2 3
M  V30 3 2 3 4
M  V30 4 1 4 5
M  V30 5 2 5 6
M  V30 6 1 5 7
M  V30 7 2 7 8
M  V30 8 1 8 9
M  V30 9 2 9 10
M  V30 10 1 10 11
M  V30 11 2 11 12
M  V30 12 1 3 13
M  V30 13 2 13 14
M  V30 14 1 14 15
M  V30 15 2 15 16
M  V30 16 1 16 17
M  V30 17 2 17 18
M  V30 18 1 6 1
M  V30 19 1 12 7
M  V30 20 1 18 13
M  V30 21 1 1 19
M  V30 22 1 2 20
M  V30 23 1 4 21
M  V30 24 1 6 22
M  V30 25 1 8 23
M  V30 26 1 9 24
M  V30 27 1 11 25
M  V30 28 1 12 26
M  V30 29 1 14 27
M  V30 30 1 15 28
M  V30 31 1 17 29
M  V30 32 1 18 30
M  V30 END BOND
M  V30 END CTAB
M  END

$$$$
