
     RDKit          3D

  0  0  0  0  0  0  0  0  0  0999 V3000
M  V30 BEGIN CTAB
M  V30 COUNTS 30 32 0 0 0
M  V30 BEGIN ATOM
M  V30 1 C 0.0064 1.4327 -2.3455 0
M  V30 2 C 1.2150 1.0520 -1.7603 0
M  V30 3 C 1.2256 0.3185 -0.5613 0
M  V30 4 C -0.0001 -0.0246 0.0393 0
M  V30 5 C -1.2226 0.3554 -0.5454 0
M  V30 6 C -1.2055 1.0885 -1.7446 0
M  V30 7 C -2.5115 -0.0109 0.0961 0
M  V30 8 C -2.6877 -1.2786 0.6777 0
M  V30 9 C -3.9080 -1.6026 1.2754 0
M  V30 10 N -4.9203 -0.6963 1.2956 0
M  V30 11 C -4.7820 0.5373 0.7428 0
M  V30 12 C -3.5792 0.9027 0.1337 0
M  V30 13 C 2.5111 -0.0866 0.0635 0
M  V30 14 C 3.6061 0.7946 0.0873 0
M  V30 15 C 4.8052 0.3929 0.6808 0
M  V30 16 N 4.9135 -0.8445 1.2317 0
M  V30 17 C 3.8743 -1.7200 1.2245 0
M  V30 18 C 2.6566 -1.3592 0.6427 0
M  V30 19 H 0.0087 1.9904 -3.2731 0
M  V30 20 H 2.1411 1.3156 -2.2554 0
M  V30 21 H -0.0020 -0.5579 0.9820 0
M  V30 22 H -2.1296 1.3798 -2.2277 0
M  V30 23 H -1.8970 -2.0179 0.6551 0
M  V30 24 H -4.0512 -2.5779 1.7210 0
M  V30 25 H -5.6059 1.2374 0.7788 0
M  V30 26 H -3.4796 1.8953 -0.2871 0
M  V30 27 H 3.5309 1.7899 -0.3322 0
M  V30 28 H 5.6502 1.0680 0.7061 0
M  V30 29 H 3.9939 -2.6994 1.6682 0
M  V30 30 H 1.8438 -2.0744 0.6303 0
M  V30 END ATOM
M  V30 BEGIN BOND
M  V30 1 2 1 2
M  V30 2 1 2 3
M  V30 3 2 3 4
M  V30 4 1 4 5
M  V30 5 2 5 6
M  V30 6 1 5 7
M  V30 7 2 7 8
M  V30 8 1 8 9
M  V30 9 2 9 10
M  V30 10 1 10 11
M  V30 11 2 11 12
M  V30 12 1 3 13
M  V30 13 2 13 14
M  V30 14 1 14 15
M  V30 15 2 15 16
M  V30 16 1 16 17
M  V30 17 2 17 18
M  V30 18 1 6 1
M  V30 19 1 12 7
M  V30 20 1 18 13
M  V30 21 1 1 19
M  V30 22 1 2 20
M  V30 23 1 4 21
M  V30 24 1 6 22
M  V30 25 1 8 23
M  V30 26 1 9 24
M  V30 27 1 11 25
M  V30 28 1 12 26
M  V30 29 1 14 27
M  V30 30 1 15 28
M  V30 31 1 17 29
M  V30 32 1 18 30
M  V30 END BOND
M  V30 END CTAB
M  END

$$$$
