
     RDKit          3D

  0  0  0  0  0  0  0  0  0  0999 V3000
M  V30 BEGIN CTAB
M  V30 COUNTS 30 32 0 0 0
M  V30 BEGIN ATOM
M  V30 1 C 0.1170 2.5976 -0.9423 0
M  V30 2 C -1.1195 2.0139 -0.6623 0
M  V30 3 C -1.1932 0.6860 -0.2071 0
M  V30 4 C -0.0020 -0.0440 -0.0375 0
M  V30 5 C 1.2483 0.5380 -0.3183 0
M  V30 6 C 1.2943 1.8674 -0.7723 0
M  V30 7 C 2.5005 -0.2403 -0.1358 0
M  V30 8 C 2.5628 -1.5948 -0.5067 0
M  V30 9 C 3.7504 -2.3080 -0.3269 0
M  V30 10 N 4.8405 -1.6958 0.2052 0
M  V30 11 C 4.8130 -0.3884 0.5743 0
M  V30 12 C 3.6465 0.3627 0.4110 0
M  V30 13 C -2.5084 0.0635 0.0923 0
M  V30 14 C -2.7670 -1.2715 -0.2640 0
M  V30 15 C -4.0107 -1.8373 0.0266 0
M  V30 16 N -4.9664 -1.1009 0.6518 0
M  V30 17 C -4.7481 0.1916 1.0097 0
M  V30 18 C -3.5191 0.7973 0.7373 0
M  V30 19 H 0.1626 3.6182 -1.3001 0
M  V30 20 H -2.0193 2.5952 -0.8196 0
M  V30 21 H -0.0458 -1.0554 0.3475 0
M  V30 22 H 2.2397 2.3369 -1.0136 0
M  V30 23 H 1.7083 -2.0927 -0.9475 0
M  V30 24 H 3.8059 -3.3495 -0.6142 0
M  V30 25 H 5.6970 0.0688 0.9985 0
M  V30 26 H 3.6360 1.3986 0.7257 0
M  V30 27 H -2.0223 -1.8665 -0.7776 0
M  V30 28 H -4.2173 -2.8629 -0.2487 0
M  V30 29 H -5.5284 0.7497 1.5096 0
M  V30 30 H -3.3553 1.8227 1.0440 0
M  V30 END ATOM
M  V30 BEGIN BOND
M  V30 1 2 1 2
M  V30 2 1 2 3
M  V30 3 2 3 4
M  V30 4 1 4 5
M  V30 5 2 5 6
M  V30 6 1 5 7
M  V30 7 2 7 8
M  V30 8 1 8 9
M  V30 9 2 9 10
M  V30 10 1 10 11
M  V30 11 2 11 12
M  V30 12 1 3 13
M  V30 13 2 13 14
M  V30 14 1 14 15
M  V30 15 2 15 16
M  V30 16 1 16 17
M  V30 17 2 17 18
M  V30 18 1 6 1
M  V30 19 1 12 7
M  V30 20 1 18 13
M  V30 21 1 1 19
M  V30 22 1 2 20
M  V30 23 1 4 21
M  V30 24 1 6 22
M  V30 25 1 8 23
M  V30 26 1 9 24
M  V30 27 1 11 25
M  V30 28 1 12 26
M  V30 29 1 14 27
M  V30 30 1 15 28
M  V30 31 1 17 29
M  V30 32 1 18 30
M  V30 END BOND
M  V30 END CTAB
M  END

$$$$
