
     RDKit          3D

  0  0  0  0  0  0  0  0  0  0999 V3000
M  V30 BEGIN CTAB
M  V30 COUNTS 30 32 0 0 0
M  V30 BEGIN ATOM
M  V30 1 C 0.1121 -2.5441 -1.0287 0
M  V30 2 C 1.2929 -1.8618 -0.7316 0
M  V30 3 C 1.2494 -0.5589 -0.2061 0
M  V30 4 C -0.0020 0.0450 0.0182 0
M  V30 5 C -1.1967 -0.6377 -0.2777 0
M  V30 6 C -1.1255 -1.9386 -0.8051 0
M  V30 7 C -2.5137 0.0048 -0.0339 0
M  V30 8 C -2.7358 0.7678 1.1256 0
M  V30 9 C -3.9823 1.3629 1.3346 0
M  V30 10 N -4.9757 1.2056 0.4209 0
M  V30 11 C -4.7932 0.4746 -0.7099 0
M  V30 12 C -3.5629 -0.1387 -0.9582 0
M  V30 13 C 2.5060 0.1699 0.1046 0
M  V30 14 C 3.5908 -0.4949 0.7020 0
M  V30 15 C 4.7630 0.2096 0.9865 0
M  V30 16 N 4.8551 1.5316 0.6858 0
M  V30 17 C 3.8252 2.2031 0.1072 0
M  V30 18 C 2.6342 1.5377 -0.1934 0
M  V30 19 H 0.1562 -3.5467 -1.4341 0
M  V30 20 H 2.2406 -2.3466 -0.9298 0
M  V30 21 H -0.0462 1.0481 0.4238 0
M  V30 22 H -2.0273 -2.4950 -1.0278 0
M  V30 23 H -1.9605 0.8884 1.8717 0
M  V30 24 H -4.1608 1.9480 2.2269 0
M  V30 25 H -5.6032 0.3715 -1.4195 0
M  V30 26 H -3.4284 -0.7042 -1.8717 0
M  V30 27 H 3.5274 -1.5439 0.9628 0
M  V30 28 H 5.5998 -0.2953 1.4503 0
M  V30 29 H 3.9316 3.2547 -0.1233 0
M  V30 30 H 1.8296 2.0831 -0.6702 0
M  V30 END ATOM
M  V30 BEGIN BOND
M  V30 1 2 1 2
M  V30 2 1 2 3
M  V30 3 2 3 4
M  V30 4 1 4 5
M  V30 5 2 5 6
M  V30 6 1 5 7
M  V30 7 2 7 8
M  V30 8 1 8 9
M  V30 9 2 9 10
M  V30 10 1 10 11
M  V30 11 2 11 12
M  V30 12 1 3 13
M  V30 13 2 13 14
M  V30 14 1 14 15
M  V30 15 2 15 16
M  V30 16 1 16 17
M  V30 17 2 17 18
M  V30 18 1 6 1
M  V30 19 1 12 7
M  V30 20 1 18 13
M  V30 21 1 1 19
M  V30 22 1 2 20
M  V30 23 1 4 21
M  V30 24 1 6 22
M  V30 25 1 8 23
M  V30 26 1 9 24
M  V30 27 1 11 25
M  V30 28 1 12 26
M  V30 29 1 14 27
M  V30 30 1 15 28
M  V30 31 1 17 29
M  V30 32 1 18 30
M  V30 END BOND
M  V30 END CTAB
M  END

$$$$
