
     RDKit          3D

  0  0  0  0  0  0  0  0  0  0999 V3000
M  V30 BEGIN CTAB
M  V30 COUNTS 63 69 0 0 0
M  V30 BEGIN ATOM
M  V30 1 C -12.3143 0.4144 1.7999 0
M  V30 2 C -11.5421 0.1227 0.6677 0
M  V30 3 C -10.1394 0.3308 0.6981 0
M  V30 4 C -9.3659 0.0377 -0.4554 0
M  V30 5 C -10.0014 -0.4835 -1.5946 0
M  V30 6 C -11.3810 -0.6895 -1.6103 0
M  V30 7 C -12.1508 -0.3827 -0.4893 0
M  V30 8 C -7.9060 0.2767 -0.5160 0
M  V30 9 C -7.0246 -0.7933 -0.7381 0
M  V30 10 C -5.6471 -0.5671 -0.8168 0
M  V30 11 C -5.1398 0.7315 -0.6837 0
M  V30 12 C -3.7220 0.9637 -0.7645 0
M  V30 13 C -2.5343 1.1583 -0.8317 0
M  V30 14 C -1.1199 1.3900 -0.9114 0
M  V30 15 C -0.5190 2.5607 -1.3543 0
M  V30 16 C 0.8792 2.5017 -1.3218 0
M  V30 17 C 1.3583 1.2855 -0.8538 0
M  V30 18 C 2.7431 0.9358 -0.7091 0
M  V30 19 C 3.9057 0.6420 -0.5871 0
M  V30 20 C 5.2937 0.2912 -0.4411 0
M  V30 21 C 5.9054 -0.5559 -1.3736 0
M  V30 22 C 7.2539 -0.8974 -1.2319 0
M  V30 23 C 7.9997 -0.4017 -0.1506 0
M  V30 24 C 9.4332 -0.7466 -0.0152 0
M  V30 25 C 9.9465 -1.4453 1.1086 0
M  V30 26 C 11.3395 -1.6982 1.1950 0
M  V30 27 C 11.8559 -2.3822 2.3034 0
M  V30 28 C 10.9900 -2.8202 3.3041 0
M  V30 29 N 9.6559 -2.5920 3.2001 0
M  V30 30 C 9.1188 -1.9288 2.1424 0
M  V30 31 C 12.1941 -1.2727 0.1687 0
M  V30 32 C 11.6789 -0.6072 -0.9427 0
M  V30 33 C 10.3115 -0.3474 -1.0361 0
M  V30 34 C 7.3852 0.4586 0.7740 0
M  V30 35 C 6.0367 0.7992 0.6317 0
M  V30 36 S 0.0652 0.2789 -0.4783 0
M  V30 37 C -6.0159 1.8041 -0.4757 0
M  V30 38 C -7.3935 1.5789 -0.3971 0
M  V30 39 C -9.5637 0.7997 1.8966 0
M  V30 40 N -10.3449 1.0678 2.9759 0
M  V30 41 C -11.6910 0.8935 2.9510 0
M  V30 42 H -13.3879 0.2683 1.7963 0
M  V30 43 H -9.4263 -0.7158 -2.4830 0
M  V30 44 H -11.8567 -1.0840 -2.4990 0
M  V30 45 H -13.2213 -0.5475 -0.5238 0
M  V30 46 H -7.4044 -1.8023 -0.8430 0
M  V30 47 H -4.9784 -1.4034 -0.9822 0
M  V30 48 H -1.0702 3.4296 -1.6899 0
M  V30 49 H 1.5165 3.3206 -1.6298 0
M  V30 50 H 5.3407 -0.9511 -2.2096 0
M  V30 51 H 7.7154 -1.5531 -1.9602 0
M  V30 52 H 12.9174 -2.5809 2.3921 0
M  V30 53 H 11.3787 -3.3512 4.1628 0
M  V30 54 H 8.0464 -1.7975 2.1132 0
M  V30 55 H 13.2598 -1.4617 0.2227 0
M  V30 56 H 12.3437 -0.2856 -1.7340 0
M  V30 57 H 9.9367 0.1842 -1.9027 0
M  V30 58 H 7.9518 0.8658 1.6026 0
M  V30 59 H 5.5749 1.4601 1.3554 0
M  V30 60 H -5.6345 2.8135 -0.3775 0
M  V30 61 H -8.0615 2.4181 -0.2456 0
M  V30 62 H -8.4966 0.9430 1.9905 0
M  V30 63 H -12.2782 1.1196 3.8310 0
M  V30 END ATOM
M  V30 BEGIN BOND
M  V30 1 2 1 2
M  V30 2 1 2 3
M  V30 3 1 3 4
M  V30 4 2 4 5
M  V30 5 1 5 6
M  V30 6 2 6 7
M  V30 7 1 4 8
M  V30 8 2 8 9
M  V30 9 1 9 10
M  V30 10 2 10 11
M  V30 11 1 11 12
M  V30 12 3 12 13
M  V30 13 1 13 14
M  V30 14 2 14 15
M  V30 15 1 15 16
M  V30 16 2 16 17
M  V30 17 1 17 18
M  V30 18 3 18 19
M  V30 19 1 19 20
M  V30 20 2 20 21
M  V30 21 1 21 22
M  V30 22 2 22 23
M  V30 23 1 23 24
M  V30 24 1 24 25
M  V30 25 1 25 26
M  V30 26 2 26 27
M  V30 27 1 27 28
M  V30 28 2 28 29
M  V30 29 1 29 30
M  V30 30 1 26 31
M  V30 31 2 31 32
M  V30 32 1 32 33
M  V30 33 1 23 34
M  V30 34 2 34 35
M  V30 35 1 17 36
M  V30 36 1 11 37
M  V30 37 2 37 38
M  V30 38 2 3 39
M  V30 39 1 39 40
M  V30 40 2 40 41
M  V30 41 1 41 1
M  V30 42 1 7 2
M  V30 43 1 38 8
M  V30 44 1 36 14
M  V30 45 1 35 20
M  V30 46 2 33 24
M  V30 47 2 30 25
M  V30 48 1 1 42
M  V30 49 1 5 43
M  V30 50 1 6 44
M  V30 51 1 7 45
M  V30 52 1 9 46
M  V30 53 1 10 47
M  V30 54 1 15 48
M  V30 55 1 16 49
M  V30 56 1 21 50
M  V30 57 1 22 51
M  V30 58 1 27 52
M  V30 59 1 28 53
M  V30 60 1 30 54
M  V30 61 1 31 55
M  V30 62 1 32 56
M  V30 63 1 33 57
M  V30 64 1 34 58
M  V30 65 1 35 59
M  V30 66 1 37 60
M  V30 67 1 38 61
M  V30 68 1 39 62
M  V30 69 1 41 63
M  V30 END BOND
M  V30 END CTAB
M  END

$$$$
