
     RDKit          3D

  0  0  0  0  0  0  0  0  0  0999 V3000
M  V30 BEGIN CTAB
M  V30 COUNTS 63 69 0 0 0
M  V30 BEGIN ATOM
M  V30 1 C -12.5990 0.7320 -0.1655 0
M  V30 2 C -11.6704 0.1183 0.6854 0
M  V30 3 C -10.2967 0.0981 0.3328 0
M  V30 4 C -9.3645 -0.5328 1.1974 0
M  V30 5 C -9.8168 -1.0950 2.4027 0
M  V30 6 C -11.1693 -1.0619 2.7421 0
M  V30 7 C -12.0945 -0.4658 1.8869 0
M  V30 8 C -7.9238 -0.6399 0.8730 0
M  V30 9 C -7.5010 -1.3564 -0.2585 0
M  V30 10 C -6.1388 -1.4724 -0.5512 0
M  V30 11 C -5.1873 -0.8840 0.2904 0
M  V30 12 C -3.7855 -0.9993 -0.0136 0
M  V30 13 C -2.6111 -1.0926 -0.2683 0
M  V30 14 C -1.2121 -1.1990 -0.5711 0
M  V30 15 C -0.6564 -2.0270 -1.5370 0
M  V30 16 C 0.7364 -1.9126 -1.6169 0
M  V30 17 C 1.2566 -0.9976 -0.7112 0
M  V30 18 C 2.6443 -0.6572 -0.5732 0
M  V30 19 C 3.8081 -0.3656 -0.4565 0
M  V30 20 C 5.1956 -0.0111 -0.3163 0
M  V30 21 C 5.8081 0.8142 -1.2674 0
M  V30 22 C 7.1530 1.1691 -1.1256 0
M  V30 23 C 7.9000 0.6932 -0.0355 0
M  V30 24 C 9.3153 1.0940 0.1353 0
M  V30 25 C 10.3205 0.7695 -0.8130 0
M  V30 26 C 11.6458 1.2313 -0.6088 0
M  V30 27 C 12.6433 0.9206 -1.5423 0
M  V30 28 C 12.3237 0.1468 -2.6566 0
M  V30 29 N 11.0568 -0.3084 -2.8304 0
M  V30 30 C 10.0621 -0.0244 -1.9490 0
M  V30 31 C 11.9570 1.9880 0.5292 0
M  V30 32 C 10.9691 2.2830 1.4672 0
M  V30 33 C 9.6609 1.8394 1.2746 0
M  V30 34 C 7.2782 -0.1255 0.9209 0
M  V30 35 C 5.9330 -0.4798 0.7782 0
M  V30 36 S 0.0063 -0.3231 0.1872 0
M  V30 37 C -5.6029 -0.1823 1.4287 0
M  V30 38 C -6.9650 -0.0647 1.7218 0
M  V30 39 C -9.9088 0.7378 -0.8621 0
M  V30 40 N -10.8380 1.3266 -1.6597 0
M  V30 41 C -12.1584 1.3310 -1.3442 0
M  V30 42 H -13.6537 0.7533 0.0815 0
M  V30 43 H -9.1189 -1.5779 3.0762 0
M  V30 44 H -11.5028 -1.5072 3.6705 0
M  V30 45 H -13.1408 -0.4546 2.1681 0
M  V30 46 H -8.2269 -1.8241 -0.9124 0
M  V30 47 H -5.8277 -2.0221 -1.4316 0
M  V30 48 H -1.2362 -2.6901 -2.1666 0
M  V30 49 H 1.3406 -2.4768 -2.3159 0
M  V30 50 H 5.2450 1.1877 -2.1143 0
M  V30 51 H 7.6116 1.8183 -1.8615 0
M  V30 52 H 13.6609 1.2681 -1.4085 0
M  V30 53 H 13.0875 -0.1005 -3.3817 0
M  V30 54 H 9.0802 -0.4342 -2.1379 0
M  V30 55 H 12.9665 2.3444 0.6971 0
M  V30 56 H 11.2170 2.8634 2.3465 0
M  V30 57 H 8.9074 2.0940 2.0105 0
M  V30 58 H 7.8364 -0.4917 1.7739 0
M  V30 59 H 5.4677 -1.1150 1.5222 0
M  V30 60 H -4.8749 0.2735 2.0884 0
M  V30 61 H -7.2733 0.4808 2.6053 0
M  V30 62 H -8.8722 0.7874 -1.1637 0
M  V30 63 H -12.8673 1.8092 -2.0068 0
M  V30 END ATOM
M  V30 BEGIN BOND
M  V30 1 2 1 2
M  V30 2 1 2 3
M  V30 3 1 3 4
M  V30 4 2 4 5
M  V30 5 1 5 6
M  V30 6 2 6 7
M  V30 7 1 4 8
M  V30 8 2 8 9
M  V30 9 1 9 10
M  V30 10 2 10 11
M  V30 11 1 11 12
M  V30 12 3 12 13
M  V30 13 1 13 14
M  V30 14 2 14 15
M  V30 15 1 15 16
M  V30 16 2 16 17
M  V30 17 1 17 18
M  V30 18 3 18 19
M  V30 19 1 19 20
M  V30 20 2 20 21
M  V30 21 1 21 22
M  V30 22 2 22 23
M  V30 23 1 23 24
M  V30 24 1 24 25
M  V30 25 1 25 26
M  V30 26 2 26 27
M  V30 27 1 27 28
M  V30 28 2 28 29
M  V30 29 1 29 30
M  V30 30 1 26 31
M  V30 31 2 31 32
M  V30 32 1 32 33
M  V30 33 1 23 34
M  V30 34 2 34 35
M  V30 35 1 17 36
M  V30 36 1 11 37
M  V30 37 2 37 38
M  V30 38 2 3 39
M  V30 39 1 39 40
M  V30 40 2 40 41
M  V30 41 1 41 1
M  V30 42 1 7 2
M  V30 43 1 38 8
M  V30 44 1 36 14
M  V30 45 1 35 20
M  V30 46 2 33 24
M  V30 47 2 30 25
M  V30 48 1 1 42
M  V30 49 1 5 43
M  V30 50 1 6 44
M  V30 51 1 7 45
M  V30 52 1 9 46
M  V30 53 1 10 47
M  V30 54 1 15 48
M  V30 55 1 16 49
M  V30 56 1 21 50
M  V30 57 1 22 51
M  V30 58 1 27 52
M  V30 59 1 28 53
M  V30 60 1 30 54
M  V30 61 1 31 55
M  V30 62 1 32 56
M  V30 63 1 33 57
M  V30 64 1 34 58
M  V30 65 1 35 59
M  V30 66 1 37 60
M  V30 67 1 38 61
M  V30 68 1 39 62
M  V30 69 1 41 63
M  V30 END BOND
M  V30 END CTAB
M  END

$$$$
