
     RDKit          3D

  0  0  0  0  0  0  0  0  0  0999 V3000
M  V30 BEGIN CTAB
M  V30 COUNTS 63 69 0 0 0
M  V30 BEGIN ATOM
M  V30 1 C 12.7429 -0.0111 0.2427 0
M  V30 2 C 11.6823 -0.2902 -0.6291 0
M  V30 3 C 10.3445 -0.1648 -0.1747 0
M  V30 4 C 9.2763 -0.4448 -1.0665 0
M  V30 5 C 9.5657 -0.8722 -2.3727 0
M  V30 6 C 10.8858 -0.9975 -2.8063 0
M  V30 7 C 11.9404 -0.7025 -1.9437 0
M  V30 8 C 7.8559 -0.2901 -0.6784 0
M  V30 9 C 6.9960 -1.4002 -0.6920 0
M  V30 10 C 5.6516 -1.2546 -0.3362 0
M  V30 11 C 5.1536 0.0030 0.0272 0
M  V30 12 C 3.7734 0.1504 0.4067 0
M  V30 13 C 2.6189 0.2752 0.7303 0
M  V30 14 C 1.2463 0.4255 1.1224 0
M  V30 15 C 0.8059 0.7547 2.3973 0
M  V30 16 C -0.5884 0.8305 2.4896 0
M  V30 17 C -1.2256 0.5619 1.2852 0
M  V30 18 C -2.6464 0.5512 1.0803 0
M  V30 19 C -3.8402 0.5394 0.9137 0
M  V30 20 C -5.2660 0.5222 0.7205 0
M  V30 21 C -6.1188 0.3208 1.8132 0
M  V30 22 C -7.5044 0.3019 1.6275 0
M  V30 23 C -8.0490 0.4729 0.3446 0
M  V30 24 C -9.5175 0.4733 0.1534 0
M  V30 25 C -10.1800 -0.4741 -0.6706 0
M  V30 26 C -11.5845 -0.3823 -0.8471 0
M  V30 27 C -12.2461 -1.3090 -1.6635 0
M  V30 28 C -11.5165 -2.3227 -2.2818 0
M  V30 29 N -10.1759 -2.4146 -2.0876 0
M  V30 30 C -9.4990 -1.5317 -1.3070 0
M  V30 31 C -12.3079 0.6275 -0.1981 0
M  V30 32 C -11.6529 1.5396 0.6280 0
M  V30 33 C -10.2711 1.4640 0.8038 0
M  V30 34 C -7.1901 0.6887 -0.7456 0
M  V30 35 C -5.8046 0.7085 -0.5588 0
M  V30 36 S -0.0768 0.2281 0.1037 0
M  V30 37 C 6.0033 1.1165 0.0262 0
M  V30 38 C 7.3474 0.9722 -0.3303 0
M  V30 39 C 10.1316 0.2098 1.1678 0
M  V30 40 N 11.1863 0.4683 1.9852 0
M  V30 41 C 12.4703 0.3733 1.5547 0
M  V30 42 H 13.7720 -0.0953 -0.0855 0
M  V30 43 H 8.7629 -1.0943 -3.0655 0
M  V30 44 H 11.0921 -1.3201 -3.8188 0
M  V30 45 H 12.9582 -0.8040 -2.3015 0
M  V30 46 H 7.3700 -2.3785 -0.9685 0
M  V30 47 H 5.0014 -2.1214 -0.3424 0
M  V30 48 H 1.4677 0.9311 3.2349 0
M  V30 49 H -1.1117 1.0696 3.4069 0
M  V30 50 H -5.7125 0.1791 2.8078 0
M  V30 51 H -8.1530 0.1464 2.4809 0
M  V30 52 H -13.3172 -1.2528 -1.8173 0
M  V30 53 H -12.0188 -3.0449 -2.9115 0
M  V30 54 H -8.4349 -1.6728 -1.1805 0
M  V30 55 H -13.3814 0.7068 -0.3240 0
M  V30 56 H -12.2183 2.3139 1.1307 0
M  V30 57 H -9.7820 2.1940 1.4378 0
M  V30 58 H -7.5944 0.8429 -1.7385 0
M  V30 59 H -5.1547 0.8714 -1.4103 0
M  V30 60 H 5.6272 2.0948 0.3015 0
M  V30 61 H 7.9928 1.8423 -0.3333 0
M  V30 62 H 9.1353 0.2862 1.5799 0
M  V30 63 H 13.2826 0.5886 2.2360 0
M  V30 END ATOM
M  V30 BEGIN BOND
M  V30 1 2 1 2
M  V30 2 1 2 3
M  V30 3 1 3 4
M  V30 4 2 4 5
M  V30 5 1 5 6
M  V30 6 2 6 7
M  V30 7 1 4 8
M  V30 8 2 8 9
M  V30 9 1 9 10
M  V30 10 2 10 11
M  V30 11 1 11 12
M  V30 12 3 12 13
M  V30 13 1 13 14
M  V30 14 2 14 15
M  V30 15 1 15 16
M  V30 16 2 16 17
M  V30 17 1 17 18
M  V30 18 3 18 19
M  V30 19 1 19 20
M  V30 20 2 20 21
M  V30 21 1 21 22
M  V30 22 2 22 23
M  V30 23 1 23 24
M  V30 24 1 24 25
M  V30 25 1 25 26
M  V30 26 2 26 27
M  V30 27 1 27 28
M  V30 28 2 28 29
M  V30 29 1 29 30
M  V30 30 1 26 31
M  V30 31 2 31 32
M  V30 32 1 32 33
M  V30 33 1 23 34
M  V30 34 2 34 35
M  V30 35 1 17 36
M  V30 36 1 11 37
M  V30 37 2 37 38
M  V30 38 2 3 39
M  V30 39 1 39 40
M  V30 40 2 40 41
M  V30 41 1 41 1
M  V30 42 1 7 2
M  V30 43 1 38 8
M  V30 44 1 36 14
M  V30 45 1 35 20
M  V30 46 2 33 24
M  V30 47 2 30 25
M  V30 48 1 1 42
M  V30 49 1 5 43
M  V30 50 1 6 44
M  V30 51 1 7 45
M  V30 52 1 9 46
M  V30 53 1 10 47
M  V30 54 1 15 48
M  V30 55 1 16 49
M  V30 56 1 21 50
M  V30 57 1 22 51
M  V30 58 1 27 52
M  V30 59 1 28 53
M  V30 60 1 30 54
M  V30 61 1 31 55
M  V30 62 1 32 56
M  V30 63 1 33 57
M  V30 64 1 34 58
M  V30 65 1 35 59
M  V30 66 1 37 60
M  V30 67 1 38 61
M  V30 68 1 39 62
M  V30 69 1 41 63
M  V30 END BOND
M  V30 END CTAB
M  END

$$$$
