
     RDKit          3D

  0  0  0  0  0  0  0  0  0  0999 V3000
M  V30 BEGIN CTAB
M  V30 COUNTS 63 69 0 0 0
M  V30 BEGIN ATOM
M  V30 1 C -12.5640 -1.6550 -0.5021 0
M  V30 2 C -11.6792 -0.6420 -0.8945 0
M  V30 3 C -10.3211 -0.6956 -0.4887 0
M  V30 4 C -9.4308 0.3323 -0.8956 0
M  V30 5 C -9.9203 1.4000 -1.6661 0
M  V30 6 C -11.2596 1.4447 -2.0539 0
M  V30 7 C -12.1352 0.4274 -1.6775 0
M  V30 8 C -7.9903 0.3190 -0.5532 0
M  V30 9 C -7.1568 -0.7085 -1.0247 0
M  V30 10 C -5.7928 -0.7065 -0.7176 0
M  V30 11 C -5.2484 0.3272 0.0547 0
M  V30 12 C -3.8446 0.3292 0.3711 0
M  V30 13 C -2.6690 0.3324 0.6377 0
M  V30 14 C -1.2694 0.3378 0.9571 0
M  V30 15 C -0.7362 0.3840 2.2381 0
M  V30 16 C 0.6635 0.3827 2.2463 0
M  V30 17 C 1.2116 0.3354 0.9717 0
M  V30 18 C 2.6148 0.3278 0.6687 0
M  V30 19 C 3.7934 0.3230 0.4159 0
M  V30 20 C 5.2008 0.3188 0.1162 0
M  V30 21 C 5.6780 -0.3707 -1.0055 0
M  V30 22 C 7.0457 -0.3748 -1.2966 0
M  V30 23 C 7.9488 0.3035 -0.4626 0
M  V30 24 C 9.3938 0.3171 -0.7854 0
M  V30 25 C 10.3758 -0.2159 0.0901 0
M  V30 26 C 11.7468 -0.1223 -0.2613 0
M  V30 27 C 12.7235 -0.6402 0.5996 0
M  V30 28 C 12.3342 -1.2565 1.7877 0
M  V30 29 N 11.0178 -1.3604 2.1031 0
M  V30 30 C 10.0425 -0.8666 1.2956 0
M  V30 31 C 12.1210 0.4784 -1.4712 0
M  V30 32 C 11.1489 0.9785 -2.3363 0
M  V30 33 C 9.7977 0.8980 -1.9989 0
M  V30 34 C 7.4635 1.0051 0.6530 0
M  V30 35 C 6.0960 1.0081 0.9437 0
M  V30 36 S -0.0223 0.2956 -0.1696 0
M  V30 37 C -6.0729 1.3612 0.5156 0
M  V30 38 C -7.4371 1.3600 0.2092 0
M  V30 39 C -9.9160 -1.7665 0.3340 0
M  V30 40 N -10.8044 -2.7286 0.6976 0
M  V30 41 C -12.1011 -2.6992 0.2970 0
M  V30 42 H -13.6041 -1.6366 -0.8057 0
M  V30 43 H -9.2558 2.1949 -1.9830 0
M  V30 44 H -11.6192 2.2702 -2.6546 0
M  V30 45 H -13.1709 0.4803 -1.9918 0
M  V30 46 H -7.5641 -1.5085 -1.6310 0
M  V30 47 H -5.1630 -1.5082 -1.0844 0
M  V30 48 H -1.3363 0.4187 3.1380 0
M  V30 49 H 1.2532 0.4164 3.1532 0
M  V30 50 H 4.9935 -0.9034 -1.6547 0
M  V30 51 H 7.4023 -0.9116 -2.1672 0
M  V30 52 H 13.7767 -0.5740 0.3535 0
M  V30 53 H 13.0805 -1.6617 2.4579 0
M  V30 54 H 9.0135 -0.9998 1.5979 0
M  V30 55 H 13.1651 0.5540 -1.7513 0
M  V30 56 H 11.4443 1.4366 -3.2715 0
M  V30 57 H 9.0616 1.3072 -2.6805 0
M  V30 58 H 8.1444 1.5504 1.2951 0
M  V30 59 H 5.7368 1.5496 1.8106 0
M  V30 60 H -5.6612 2.1678 1.1104 0
M  V30 61 H -8.0638 2.1659 0.5712 0
M  V30 62 H -8.9031 -1.8409 0.7034 0
M  V30 63 H -12.7770 -3.4849 0.6072 0
M  V30 END ATOM
M  V30 BEGIN BOND
M  V30 1 2 1 2
M  V30 2 1 2 3
M  V30 3 1 3 4
M  V30 4 2 4 5
M  V30 5 1 5 6
M  V30 6 2 6 7
M  V30 7 1 4 8
M  V30 8 2 8 9
M  V30 9 1 9 10
M  V30 10 2 10 11
M  V30 11 1 11 12
M  V30 12 3 12 13
M  V30 13 1 13 14
M  V30 14 2 14 15
M  V30 15 1 15 16
M  V30 16 2 16 17
M  V30 17 1 17 18
M  V30 18 3 18 19
M  V30 19 1 19 20
M  V30 20 2 20 21
M  V30 21 1 21 22
M  V30 22 2 22 23
M  V30 23 1 23 24
M  V30 24 1 24 25
M  V30 25 1 25 26
M  V30 26 2 26 27
M  V30 27 1 27 28
M  V30 28 2 28 29
M  V30 29 1 29 30
M  V30 30 1 26 31
M  V30 31 2 31 32
M  V30 32 1 32 33
M  V30 33 1 23 34
M  V30 34 2 34 35
M  V30 35 1 17 36
M  V30 36 1 11 37
M  V30 37 2 37 38
M  V30 38 2 3 39
M  V30 39 1 39 40
M  V30 40 2 40 41
M  V30 41 1 41 1
M  V30 42 1 7 2
M  V30 43 1 38 8
M  V30 44 1 36 14
M  V30 45 1 35 20
M  V30 46 2 33 24
M  V30 47 2 30 25
M  V30 48 1 1 42
M  V30 49 1 5 43
M  V30 50 1 6 44
M  V30 51 1 7 45
M  V30 52 1 9 46
M  V30 53 1 10 47
M  V30 54 1 15 48
M  V30 55 1 16 49
M  V30 56 1 21 50
M  V30 57 1 22 51
M  V30 58 1 27 52
M  V30 59 1 28 53
M  V30 60 1 30 54
M  V30 61 1 31 55
M  V30 62 1 32 56
M  V30 63 1 33 57
M  V30 64 1 34 58
M  V30 65 1 35 59
M  V30 66 1 37 60
M  V30 67 1 38 61
M  V30 68 1 39 62
M  V30 69 1 41 63
M  V30 END BOND
M  V30 END CTAB
M  END

$$$$
