
     RDKit          3D

  0  0  0  0  0  0  0  0  0  0999 V3000
M  V30 BEGIN CTAB
M  V30 COUNTS 63 69 0 0 0
M  V30 BEGIN ATOM
M  V30 1 C 12.2065 1.6414 1.1488 0
M  V30 2 C 11.5562 0.6142 0.4522 0
M  V30 3 C 10.1459 0.4885 0.5358 0
M  V30 4 C 9.4952 -0.5516 -0.1781 0
M  V30 5 C 10.2650 -1.4563 -0.9279 0
M  V30 6 C 11.6522 -1.3260 -0.9974 0
M  V30 7 C 12.2966 -0.2933 -0.3178 0
M  V30 8 C 8.0236 -0.7149 -0.1809 0
M  V30 9 C 7.1981 0.2884 -0.7147 0
M  V30 10 C 5.8101 0.1219 -0.7359 0
M  V30 11 C 5.2360 -1.0524 -0.2335 0
M  V30 12 C 3.8073 -1.2236 -0.2562 0
M  V30 13 C 2.6107 -1.3671 -0.2749 0
M  V30 14 C 1.1855 -1.5382 -0.2966 0
M  V30 15 C 0.5208 -2.7261 -0.5706 0
M  V30 16 C -0.8719 -2.5959 -0.5188 0
M  V30 17 C -1.2832 -1.3075 -0.2048 0
M  V30 18 C -2.6465 -0.8758 -0.0788 0
M  V30 19 C -3.7913 -0.5138 0.0276 0
M  V30 20 C -5.1581 -0.0819 0.1553 0
M  V30 21 C -5.4917 1.2625 -0.0514 0
M  V30 22 C -6.8194 1.6827 0.0736 0
M  V30 23 C -7.8264 0.7596 0.3975 0
M  V30 24 C -9.2279 1.2115 0.5527 0
M  V30 25 C -10.2822 0.7196 -0.2604 0
M  V30 26 C -11.6092 1.1607 -0.0227 0
M  V30 27 C -12.6570 0.6765 -0.8170 0
M  V30 28 C -12.3802 -0.2246 -1.8438 0
M  V30 29 N -11.1033 -0.6229 -2.0763 0
M  V30 30 C -10.0618 -0.1783 -1.3248 0
M  V30 31 C -11.8681 2.0858 0.9979 0
M  V30 32 C -10.8238 2.5813 1.7773 0
M  V30 33 C -9.5154 2.1505 1.5570 0
M  V30 34 C -7.4847 -0.5849 0.6171 0
M  V30 35 C -6.1569 -1.0042 0.4915 0
M  V30 36 S 0.0635 -0.3242 0.0105 0
M  V30 37 C 6.0556 -2.0617 0.2870 0
M  V30 38 C 7.4438 -1.8960 0.3091 0
M  V30 39 C 9.4460 1.3966 1.3563 0
M  V30 40 N 10.1120 2.3777 2.0203 0
M  V30 41 C 11.4589 2.5213 1.9298 0
M  V30 42 H 13.2822 1.7591 1.0942 0
M  V30 43 H 9.7854 -2.2581 -1.4766 0
M  V30 44 H 12.2302 -2.0265 -1.5864 0
M  V30 45 H 13.3746 -0.2084 -0.3877 0
M  V30 46 H 7.6307 1.1970 -1.1154 0
M  V30 47 H 5.1853 0.9062 -1.1463 0
M  V30 48 H 1.0232 -3.6571 -0.8001 0
M  V30 49 H -1.5536 -3.4161 -0.7041 0
M  V30 50 H -4.7261 1.9851 -0.3075 0
M  V30 51 H -7.0640 2.7255 -0.0879 0
M  V30 52 H -13.6787 0.9959 -0.6489 0
M  V30 53 H -13.1820 -0.6025 -2.4638 0
M  V30 54 H -9.0681 -0.5210 -1.5759 0
M  V30 55 H -12.8774 2.4316 1.1878 0
M  V30 56 H -11.0299 3.2992 2.5607 0
M  V30 57 H -8.7227 2.5389 2.1852 0
M  V30 58 H -8.2465 -1.3059 0.8874 0
M  V30 59 H -5.9088 -2.0454 0.6594 0
M  V30 60 H 5.6218 -2.9759 0.6741 0
M  V30 61 H 8.0667 -2.6844 0.7139 0
M  V30 62 H 8.3754 1.3275 1.4875 0
M  V30 63 H 11.9519 3.3163 2.4732 0
M  V30 END ATOM
M  V30 BEGIN BOND
M  V30 1 2 1 2
M  V30 2 1 2 3
M  V30 3 1 3 4
M  V30 4 2 4 5
M  V30 5 1 5 6
M  V30 6 2 6 7
M  V30 7 1 4 8
M  V30 8 2 8 9
M  V30 9 1 9 10
M  V30 10 2 10 11
M  V30 11 1 11 12
M  V30 12 3 12 13
M  V30 13 1 13 14
M  V30 14 2 14 15
M  V30 15 1 15 16
M  V30 16 2 16 17
M  V30 17 1 17 18
M  V30 18 3 18 19
M  V30 19 1 19 20
M  V30 20 2 20 21
M  V30 21 1 21 22
M  V30 22 2 22 23
M  V30 23 1 23 24
M  V30 24 1 24 25
M  V30 25 1 25 26
M  V30 26 2 26 27
M  V30 27 1 27 28
M  V30 28 2 28 29
M  V30 29 1 29 30
M  V30 30 1 26 31
M  V30 31 2 31 32
M  V30 32 1 32 33
M  V30 33 1 23 34
M  V30 34 2 34 35
M  V30 35 1 17 36
M  V30 36 1 11 37
M  V30 37 2 37 38
M  V30 38 2 3 39
M  V30 39 1 39 40
M  V30 40 2 40 41
M  V30 41 1 41 1
M  V30 42 1 7 2
M  V30 43 1 38 8
M  V30 44 1 36 14
M  V30 45 1 35 20
M  V30 46 2 33 24
M  V30 47 2 30 25
M  V30 48 1 1 42
M  V30 49 1 5 43
M  V30 50 1 6 44
M  V30 51 1 7 45
M  V30 52 1 9 46
M  V30 53 1 10 47
M  V30 54 1 15 48
M  V30 55 1 16 49
M  V30 56 1 21 50
M  V30 57 1 22 51
M  V30 58 1 27 52
M  V30 59 1 28 53
M  V30 60 1 30 54
M  V30 61 1 31 55
M  V30 62 1 32 56
M  V30 63 1 33 57
M  V30 64 1 34 58
M  V30 65 1 35 59
M  V30 66 1 37 60
M  V30 67 1 38 61
M  V30 68 1 39 62
M  V30 69 1 41 63
M  V30 END BOND
M  V30 END CTAB
M  END

$$$$
