
     RDKit          3D

  0  0  0  0  0  0  0  0  0  0999 V3000
M  V30 BEGIN CTAB
M  V30 COUNTS 63 69 0 0 0
M  V30 BEGIN ATOM
M  V30 1 C -12.3394 -1.1832 0.3666 0
M  V30 2 C -11.5176 -0.5016 -0.5406 0
M  V30 3 C -10.1319 -0.3643 -0.2713 0
M  V30 4 C -9.3081 0.3327 -1.1935 0
M  V30 5 C -9.8765 0.8454 -2.3713 0
M  V30 6 C -11.2398 0.6988 -2.6279 0
M  V30 7 C -12.0598 0.0355 -1.7163 0
M  V30 8 C -7.8645 0.5604 -0.9564 0
M  V30 9 C -7.4365 1.3281 0.1392 0
M  V30 10 C -6.0738 1.5612 0.3473 0
M  V30 11 C -5.1279 1.0377 -0.5430 0
M  V30 12 C -3.7256 1.2807 -0.3303 0
M  V30 13 C -2.5511 1.4851 -0.1526 0
M  V30 14 C -1.1524 1.7299 0.0582 0
M  V30 15 C -0.6016 2.9255 0.4995 0
M  V30 16 C 0.7928 2.8752 0.6102 0
M  V30 17 C 1.3193 1.6408 0.2542 0
M  V30 18 C 2.7126 1.2953 0.2657 0
M  V30 19 C 3.8827 1.0061 0.2751 0
M  V30 20 C 5.2800 0.6621 0.2859 0
M  V30 21 C 6.0735 0.9847 1.3939 0
M  V30 22 C 7.4319 0.6532 1.4039 0
M  V30 23 C 8.0061 -0.0125 0.3093 0
M  V30 24 C 9.4501 -0.3400 0.3118 0
M  V30 25 C 9.9302 -1.6731 0.2261 0
M  V30 26 C 11.3282 -1.9086 0.1833 0
M  V30 27 C 11.8111 -3.2208 0.0930 0
M  V30 28 C 10.9095 -4.2833 0.0609 0
M  V30 29 N 9.5742 -4.0473 0.1250 0
M  V30 30 C 9.0683 -2.7886 0.2091 0
M  V30 31 C 12.2228 -0.8311 0.2412 0
M  V30 32 C 11.7436 0.4736 0.3484 0
M  V30 33 C 10.3707 0.7184 0.3852 0
M  V30 34 C 7.2089 -0.3218 -0.8050 0
M  V30 35 C 5.8507 0.0097 -0.8140 0
M  V30 36 S 0.0728 0.6073 -0.1979 0
M  V30 37 C -5.5503 0.2827 -1.6443 0
M  V30 38 C -6.9130 0.0488 -1.8530 0
M  V30 39 C -9.6218 -0.9571 0.9018 0
M  V30 40 N -10.4496 -1.6142 1.7561 0
M  V30 41 C -11.7811 -1.7326 1.5196 0
M  V30 42 H -13.4015 -1.2947 0.1832 0
M  V30 43 H -9.2622 1.3776 -3.0878 0
M  V30 44 H -11.6639 1.1069 -3.5363 0
M  V30 45 H -13.1166 -0.0645 -1.9338 0
M  V30 46 H -8.1589 1.7472 0.8291 0
M  V30 47 H -5.7582 2.1519 1.1990 0
M  V30 48 H -1.1857 3.8061 0.7337 0
M  V30 49 H 1.3942 3.7131 0.9387 0
M  V30 50 H 5.6430 1.4934 2.2481 0
M  V30 51 H 8.0350 0.9092 2.2665 0
M  V30 52 H 12.8750 -3.4228 0.0531 0
M  V30 53 H 11.2725 -5.3001 -0.0066 0
M  V30 54 H 7.9958 -2.6728 0.2758 0
M  V30 55 H 13.2930 -0.9987 0.2111 0
M  V30 56 H 12.4398 1.3009 0.3976 0
M  V30 57 H 10.0223 1.7420 0.4540 0
M  V30 58 H 7.6408 -0.8169 -1.6662 0
M  V30 59 H 5.2473 -0.2387 -1.6788 0
M  V30 60 H -4.8272 -0.1231 -2.3416 0
M  V30 61 H -7.2268 -0.5358 -2.7092 0
M  V30 62 H -8.5687 -0.9160 1.1414 0
M  V30 63 H -12.4068 -2.2628 2.2251 0
M  V30 END ATOM
M  V30 BEGIN BOND
M  V30 1 2 1 2
M  V30 2 1 2 3
M  V30 3 1 3 4
M  V30 4 2 4 5
M  V30 5 1 5 6
M  V30 6 2 6 7
M  V30 7 1 4 8
M  V30 8 2 8 9
M  V30 9 1 9 10
M  V30 10 2 10 11
M  V30 11 1 11 12
M  V30 12 3 12 13
M  V30 13 1 13 14
M  V30 14 2 14 15
M  V30 15 1 15 16
M  V30 16 2 16 17
M  V30 17 1 17 18
M  V30 18 3 18 19
M  V30 19 1 19 20
M  V30 20 2 20 21
M  V30 21 1 21 22
M  V30 22 2 22 23
M  V30 23 1 23 24
M  V30 24 1 24 25
M  V30 25 1 25 26
M  V30 26 2 26 27
M  V30 27 1 27 28
M  V30 28 2 28 29
M  V30 29 1 29 30
M  V30 30 1 26 31
M  V30 31 2 31 32
M  V30 32 1 32 33
M  V30 33 1 23 34
M  V30 34 2 34 35
M  V30 35 1 17 36
M  V30 36 1 11 37
M  V30 37 2 37 38
M  V30 38 2 3 39
M  V30 39 1 39 40
M  V30 40 2 40 41
M  V30 41 1 41 1
M  V30 42 1 7 2
M  V30 43 1 38 8
M  V30 44 1 36 14
M  V30 45 1 35 20
M  V30 46 2 33 24
M  V30 47 2 30 25
M  V30 48 1 1 42
M  V30 49 1 5 43
M  V30 50 1 6 44
M  V30 51 1 7 45
M  V30 52 1 9 46
M  V30 53 1 10 47
M  V30 54 1 15 48
M  V30 55 1 16 49
M  V30 56 1 21 50
M  V30 57 1 22 51
M  V30 58 1 27 52
M  V30 59 1 28 53
M  V30 60 1 30 54
M  V30 61 1 31 55
M  V30 62 1 32 56
M  V30 63 1 33 57
M  V30 64 1 34 58
M  V30 65 1 35 59
M  V30 66 1 37 60
M  V30 67 1 38 61
M  V30 68 1 39 62
M  V30 69 1 41 63
M  V30 END BOND
M  V30 END CTAB
M  END

$$$$
