
     RDKit          3D

  0  0  0  0  0  0  0  0  0  0999 V3000
M  V30 BEGIN CTAB
M  V30 COUNTS 63 69 0 0 0
M  V30 BEGIN ATOM
M  V30 1 C -12.5617 -0.7021 1.7670 0
M  V30 2 C -11.4674 -0.2017 2.4848 0
M  V30 3 C -10.1980 -0.1060 1.8594 0
M  V30 4 C -9.0940 0.3971 2.5961 0
M  V30 5 C -9.2878 0.8204 3.9214 0
M  V30 6 C -10.5425 0.7268 4.5238 0
M  V30 7 C -11.6269 0.2127 3.8143 0
M  V30 8 C -7.7294 0.4796 2.0275 0
M  V30 9 C -7.0867 1.7226 1.9136 0
M  V30 10 C -5.7897 1.8008 1.3973 0
M  V30 11 C -5.1208 0.6366 0.9993 0
M  V30 12 C -3.7856 0.7177 0.4687 0
M  V30 13 C -2.6671 0.7860 0.0246 0
M  V30 14 C -1.3350 0.8678 -0.5040 0
M  V30 15 C -0.9568 1.5916 -1.6269 0
M  V30 16 C 0.4108 1.4885 -1.9068 0
M  V30 17 C 1.0891 0.6850 -1.0001 0
M  V30 18 C 2.4951 0.3967 -1.0319 0
M  V30 19 C 3.6757 0.1550 -1.0584 0
M  V30 20 C 5.0852 -0.1332 -1.0898 0
M  V30 21 C 6.0144 0.8780 -0.8152 0
M  V30 22 C 7.3839 0.5984 -0.8451 0
M  V30 23 C 7.8363 -0.6934 -1.1601 0
M  V30 24 C 9.2852 -0.9982 -1.1703 0
M  V30 25 C 10.1910 -0.3672 -2.0627 0
M  V30 26 C 11.5740 -0.6713 -1.9820 0
M  V30 27 C 12.4762 -0.0490 -2.8549 0
M  V30 28 C 12.0005 0.8535 -3.8048 0
M  V30 29 N 10.6720 1.1201 -3.8876 0
M  V30 30 C 9.7675 0.5392 -3.0560 0
M  V30 31 C 12.0337 -1.5994 -1.0375 0
M  V30 32 C 11.1347 -2.2319 -0.1802 0
M  V30 33 C 9.7729 -1.9366 -0.2458 0
M  V30 34 C 6.9003 -1.7068 -1.4214 0
M  V30 35 C 5.5308 -1.4263 -1.3908 0
M  V30 36 S 0.0103 0.0989 0.1485 0
M  V30 37 C -5.7524 -0.6072 1.1233 0
M  V30 38 C -7.0492 -0.6864 1.6397 0
M  V30 39 C -10.0928 -0.4940 0.5080 0
M  V30 40 N -11.1780 -0.9709 -0.1569 0
M  V30 41 C -12.3926 -1.0875 0.4381 0
M  V30 42 H -13.5389 -0.7889 2.2272 0
M  V30 43 H -8.4571 1.2099 4.4977 0
M  V30 44 H -10.6735 1.0496 5.5486 0
M  V30 45 H -12.5922 0.1461 4.3022 0
M  V30 46 H -7.5931 2.6304 2.2184 0
M  V30 47 H -5.3086 2.7676 1.3096 0
M  V30 48 H -1.6441 2.1757 -2.2252 0
M  V30 49 H 0.8861 1.9848 -2.7430 0
M  V30 50 H 5.6803 1.8803 -0.5752 0
M  V30 51 H 8.0923 1.3866 -0.6211 0
M  V30 52 H 13.5374 -0.2624 -2.8066 0
M  V30 53 H 12.6888 1.3375 -4.4847 0
M  V30 54 H 8.7227 0.7818 -3.1885 0
M  V30 55 H 13.0878 -1.8411 -0.9676 0
M  V30 56 H 11.4956 -2.9512 0.5437 0
M  V30 57 H 9.0955 -2.4301 0.4409 0
M  V30 58 H 7.2320 -2.7111 -1.6551 0
M  V30 59 H 4.8203 -2.2169 -1.6005 0
M  V30 60 H -5.2417 -1.5147 0.8241 0
M  V30 61 H -7.5233 -1.6552 1.7398 0
M  V30 62 H -9.1599 -0.4099 -0.0311 0
M  V30 63 H -13.2318 -1.4730 -0.1253 0
M  V30 END ATOM
M  V30 BEGIN BOND
M  V30 1 2 1 2
M  V30 2 1 2 3
M  V30 3 1 3 4
M  V30 4 2 4 5
M  V30 5 1 5 6
M  V30 6 2 6 7
M  V30 7 1 4 8
M  V30 8 2 8 9
M  V30 9 1 9 10
M  V30 10 2 10 11
M  V30 11 1 11 12
M  V30 12 3 12 13
M  V30 13 1 13 14
M  V30 14 2 14 15
M  V30 15 1 15 16
M  V30 16 2 16 17
M  V30 17 1 17 18
M  V30 18 3 18 19
M  V30 19 1 19 20
M  V30 20 2 20 21
M  V30 21 1 21 22
M  V30 22 2 22 23
M  V30 23 1 23 24
M  V30 24 1 24 25
M  V30 25 1 25 26
M  V30 26 2 26 27
M  V30 27 1 27 28
M  V30 28 2 28 29
M  V30 29 1 29 30
M  V30 30 1 26 31
M  V30 31 2 31 32
M  V30 32 1 32 33
M  V30 33 1 23 34
M  V30 34 2 34 35
M  V30 35 1 17 36
M  V30 36 1 11 37
M  V30 37 2 37 38
M  V30 38 2 3 39
M  V30 39 1 39 40
M  V30 40 2 40 41
M  V30 41 1 41 1
M  V30 42 1 7 2
M  V30 43 1 38 8
M  V30 44 1 36 14
M  V30 45 1 35 20
M  V30 46 2 33 24
M  V30 47 2 30 25
M  V30 48 1 1 42
M  V30 49 1 5 43
M  V30 50 1 6 44
M  V30 51 1 7 45
M  V30 52 1 9 46
M  V30 53 1 10 47
M  V30 54 1 15 48
M  V30 55 1 16 49
M  V30 56 1 21 50
M  V30 57 1 22 51
M  V30 58 1 27 52
M  V30 59 1 28 53
M  V30 60 1 30 54
M  V30 61 1 31 55
M  V30 62 1 32 56
M  V30 63 1 33 57
M  V30 64 1 34 58
M  V30 65 1 35 59
M  V30 66 1 37 60
M  V30 67 1 38 61
M  V30 68 1 39 62
M  V30 69 1 41 63
M  V30 END BOND
M  V30 END CTAB
M  END

$$$$
