
     RDKit          3D

  0  0  0  0  0  0  0  0  0  0999 V3000
M  V30 BEGIN CTAB
M  V30 COUNTS 63 69 0 0 0
M  V30 BEGIN ATOM
M  V30 1 C -12.5692 -1.9152 -0.0003 0
M  V30 2 C -11.6957 -0.8203 0.0309 0
M  V30 3 C -10.2975 -1.0367 0.1282 0
M  V30 4 C -9.4208 0.0787 0.1656 0
M  V30 5 C -9.9527 1.3749 0.0721 0
M  V30 6 C -11.3296 1.5750 -0.0276 0
M  V30 7 C -12.1998 0.4859 -0.0415 0
M  V30 8 C -7.9558 -0.0658 0.3232 0
M  V30 9 C -7.4190 -0.6339 1.4905 0
M  V30 10 C -6.0340 -0.7399 1.6501 0
M  V30 11 C -5.1738 -0.2715 0.6489 0
M  V30 12 C -3.7483 -0.3741 0.8177 0
M  V30 13 C -2.5546 -0.4581 0.9598 0
M  V30 14 C -1.1327 -0.5568 1.1291 0
M  V30 15 C -0.4885 -1.1525 2.2054 0
M  V30 16 C 0.9064 -1.1068 2.0985 0
M  V30 17 C 1.3401 -0.4744 0.9407 0
M  V30 18 C 2.7106 -0.2979 0.5517 0
M  V30 19 C 3.8613 -0.1559 0.2220 0
M  V30 20 C 5.2349 0.0054 -0.1762 0
M  V30 21 C 6.0783 -1.1100 -0.2498 0
M  V30 22 C 7.4095 -0.9577 -0.6496 0
M  V30 23 C 7.9114 0.3138 -0.9695 0
M  V30 24 C 9.3131 0.4684 -1.4186 0
M  V30 25 C 10.2627 1.2397 -0.6997 0
M  V30 26 C 11.5770 1.3810 -1.2131 0
M  V30 27 C 12.5201 2.1428 -0.5113 0
M  V30 28 C 12.1594 2.7407 0.6947 0
M  V30 29 N 10.9045 2.5809 1.1874 0
M  V30 30 C 9.9609 1.8552 0.5323 0
M  V30 31 C 11.9326 0.7507 -2.4133 0
M  V30 32 C 11.0000 -0.0230 -3.1022 0
M  V30 33 C 9.7025 -0.1654 -2.6100 0
M  V30 34 C 7.0599 1.4283 -0.9020 0
M  V30 35 C 5.7284 1.2748 -0.5028 0
M  V30 36 S 0.0106 0.0263 0.0427 0
M  V30 37 C -5.7039 0.3048 -0.5126 0
M  V30 38 C -7.0890 0.4125 -0.6727 0
M  V30 39 C -9.8320 -2.3672 0.1569 0
M  V30 40 N -10.7104 -3.4037 0.1210 0
M  V30 41 C -12.0518 -3.2083 0.0509 0
M  V30 42 H -13.6407 -1.7723 -0.0687 0
M  V30 43 H -9.2973 2.2375 0.0969 0
M  V30 44 H -11.7245 2.5808 -0.0876 0
M  V30 45 H -13.2663 0.6640 -0.1152 0
M  V30 46 H -8.0735 -0.9894 2.2771 0
M  V30 47 H -5.6338 -1.1814 2.5552 0
M  V30 48 H -1.0066 -1.6039 3.0413 0
M  V30 49 H 1.5737 -1.5227 2.8417 0
M  V30 50 H 5.7062 -2.0967 -0.0017 0
M  V30 51 H 8.0508 -1.8285 -0.7046 0
M  V30 52 H 13.5280 2.2683 -0.8877 0
M  V30 53 H 12.8820 3.3266 1.2464 0
M  V30 54 H 8.9863 1.7539 0.9886 0
M  V30 55 H 12.9343 0.8493 -2.8135 0
M  V30 56 H 11.2828 -0.5113 -4.0257 0
M  V30 57 H 8.9911 -0.7603 -3.1705 0
M  V30 58 H 7.4271 2.4138 -1.1620 0
M  V30 59 H 5.0836 2.1437 -0.4535 0
M  V30 60 H -5.0471 0.6738 -1.2917 0
M  V30 61 H -7.4870 0.8638 -1.5737 0
M  V30 62 H -8.7755 -2.5934 0.1944 0
M  V30 63 H -12.7184 -4.0602 0.0263 0
M  V30 END ATOM
M  V30 BEGIN BOND
M  V30 1 2 1 2
M  V30 2 1 2 3
M  V30 3 1 3 4
M  V30 4 2 4 5
M  V30 5 1 5 6
M  V30 6 2 6 7
M  V30 7 1 4 8
M  V30 8 2 8 9
M  V30 9 1 9 10
M  V30 10 2 10 11
M  V30 11 1 11 12
M  V30 12 3 12 13
M  V30 13 1 13 14
M  V30 14 2 14 15
M  V30 15 1 15 16
M  V30 16 2 16 17
M  V30 17 1 17 18
M  V30 18 3 18 19
M  V30 19 1 19 20
M  V30 20 2 20 21
M  V30 21 1 21 22
M  V30 22 2 22 23
M  V30 23 1 23 24
M  V30 24 1 24 25
M  V30 25 1 25 26
M  V30 26 2 26 27
M  V30 27 1 27 28
M  V30 28 2 28 29
M  V30 29 1 29 30
M  V30 30 1 26 31
M  V30 31 2 31 32
M  V30 32 1 32 33
M  V30 33 1 23 34
M  V30 34 2 34 35
M  V30 35 1 17 36
M  V30 36 1 11 37
M  V30 37 2 37 38
M  V30 38 2 3 39
M  V30 39 1 39 40
M  V30 40 2 40 41
M  V30 41 1 41 1
M  V30 42 1 7 2
M  V30 43 1 38 8
M  V30 44 1 36 14
M  V30 45 1 35 20
M  V30 46 2 33 24
M  V30 47 2 30 25
M  V30 48 1 1 42
M  V30 49 1 5 43
M  V30 50 1 6 44
M  V30 51 1 7 45
M  V30 52 1 9 46
M  V30 53 1 10 47
M  V30 54 1 15 48
M  V30 55 1 16 49
M  V30 56 1 21 50
M  V30 57 1 22 51
M  V30 58 1 27 52
M  V30 59 1 28 53
M  V30 60 1 30 54
M  V30 61 1 31 55
M  V30 62 1 32 56
M  V30 63 1 33 57
M  V30 64 1 34 58
M  V30 65 1 35 59
M  V30 66 1 37 60
M  V30 67 1 38 61
M  V30 68 1 39 62
M  V30 69 1 41 63
M  V30 END BOND
M  V30 END CTAB
M  END

$$$$
