
     RDKit          3D

  0  0  0  0  0  0  0  0  0  0999 V3000
M  V30 BEGIN CTAB
M  V30 COUNTS 63 69 0 0 0
M  V30 BEGIN ATOM
M  V30 1 C -12.7126 1.0010 0.4195 0
M  V30 2 C -11.7440 0.0762 0.0075 0
M  V30 3 C -10.3827 0.2804 0.3515 0
M  V30 4 C -9.4066 -0.6556 -0.0805 0
M  V30 5 C -9.8138 -1.7855 -0.8093 0
M  V30 6 C -11.1569 -1.9797 -1.1343 0
M  V30 7 C -12.1182 -1.0516 -0.7363 0
M  V30 8 C -7.9600 -0.4744 0.1777 0
M  V30 9 C -7.2768 0.6308 -0.3560 0
M  V30 10 C -5.9031 0.7803 -0.1431 0
M  V30 11 C -5.1990 -0.1780 0.5963 0
M  V30 12 C -3.7832 -0.0292 0.8076 0
M  V30 13 C -2.5963 0.0913 0.9822 0
M  V30 14 C -1.1817 0.2301 1.1876 0
M  V30 15 C -0.5735 0.6314 2.3695 0
M  V30 16 C 0.8231 0.6597 2.2816 0
M  V30 17 C 1.2939 0.2787 1.0323 0
M  V30 18 C 2.6748 0.1992 0.6496 0
M  V30 19 C 3.8325 0.1282 0.3223 0
M  V30 20 C 5.2132 0.0392 -0.0740 0
M  V30 21 C 5.8328 -1.2124 -0.1819 0
M  V30 22 C 7.1708 -1.3007 -0.5784 0
M  V30 23 C 7.9037 -0.1367 -0.8603 0
M  V30 24 C 9.3110 -0.2340 -1.3083 0
M  V30 25 C 10.3855 0.3323 -0.5742 0
M  V30 26 C 11.7042 0.2411 -1.0879 0
M  V30 27 C 12.7708 0.8007 -0.3721 0
M  V30 28 C 12.5245 1.4284 0.8476 0
M  V30 29 N 11.2611 1.4900 1.3403 0
M  V30 30 C 10.2009 0.9635 0.6724 0
M  V30 31 C 11.9388 -0.4155 -2.3038 0
M  V30 32 C 10.8807 -0.9884 -3.0080 0
M  V30 33 C 9.5788 -0.9017 -2.5150 0
M  V30 34 C 7.2755 1.1153 -0.7598 0
M  V30 35 C 5.9368 1.2026 -0.3647 0
M  V30 36 S -0.0043 -0.0936 0.0320 0
M  V30 37 C -5.8739 -1.2872 1.1219 0
M  V30 38 C -7.2478 -1.4373 0.9105 0
M  V30 39 C -10.0575 1.4050 1.1372 0
M  V30 40 N -11.0257 2.2784 1.5214 0
M  V30 41 C -12.3280 2.1054 1.1788 0
M  V30 42 H -13.7565 0.8678 0.1631 0
M  V30 43 H -9.0826 -2.5107 -1.1460 0
M  V30 44 H -11.4524 -2.8491 -1.7071 0
M  V30 45 H -13.1555 -1.2188 -1.0051 0
M  V30 46 H -7.8074 1.3726 -0.9404 0
M  V30 47 H -5.3899 1.6398 -0.5575 0
M  V30 48 H -1.1185 0.8911 3.2680 0
M  V30 49 H 1.4647 0.9444 3.1044 0
M  V30 50 H 5.2810 -2.1188 0.0375 0
M  V30 51 H 7.6374 -2.2745 -0.6617 0
M  V30 52 H 13.7850 0.7478 -0.7495 0
M  V30 53 H 13.3413 1.8610 1.4097 0
M  V30 54 H 9.2243 1.0303 1.1300 0
M  V30 55 H 12.9419 -0.4917 -2.7054 0
M  V30 56 H 11.0695 -1.4986 -3.9442 0
M  V30 57 H 8.7709 -1.3434 -3.0866 0
M  V30 58 H 7.8219 2.0216 -0.9920 0
M  V30 59 H 5.4646 2.1751 -0.2917 0
M  V30 60 H -5.3382 -2.0366 1.6922 0
M  V30 61 H -7.7569 -2.3017 1.3201 0
M  V30 62 H -9.0434 1.5926 1.4594 0
M  V30 63 H -13.0689 2.8236 1.5036 0
M  V30 END ATOM
M  V30 BEGIN BOND
M  V30 1 2 1 2
M  V30 2 1 2 3
M  V30 3 1 3 4
M  V30 4 2 4 5
M  V30 5 1 5 6
M  V30 6 2 6 7
M  V30 7 1 4 8
M  V30 8 2 8 9
M  V30 9 1 9 10
M  V30 10 2 10 11
M  V30 11 1 11 12
M  V30 12 3 12 13
M  V30 13 1 13 14
M  V30 14 2 14 15
M  V30 15 1 15 16
M  V30 16 2 16 17
M  V30 17 1 17 18
M  V30 18 3 18 19
M  V30 19 1 19 20
M  V30 20 2 20 21
M  V30 21 1 21 22
M  V30 22 2 22 23
M  V30 23 1 23 24
M  V30 24 1 24 25
M  V30 25 1 25 26
M  V30 26 2 26 27
M  V30 27 1 27 28
M  V30 28 2 28 29
M  V30 29 1 29 30
M  V30 30 1 26 31
M  V30 31 2 31 32
M  V30 32 1 32 33
M  V30 33 1 23 34
M  V30 34 2 34 35
M  V30 35 1 17 36
M  V30 36 1 11 37
M  V30 37 2 37 38
M  V30 38 2 3 39
M  V30 39 1 39 40
M  V30 40 2 40 41
M  V30 41 1 41 1
M  V30 42 1 7 2
M  V30 43 1 38 8
M  V30 44 1 36 14
M  V30 45 1 35 20
M  V30 46 2 33 24
M  V30 47 2 30 25
M  V30 48 1 1 42
M  V30 49 1 5 43
M  V30 50 1 6 44
M  V30 51 1 7 45
M  V30 52 1 9 46
M  V30 53 1 10 47
M  V30 54 1 15 48
M  V30 55 1 16 49
M  V30 56 1 21 50
M  V30 57 1 22 51
M  V30 58 1 27 52
M  V30 59 1 28 53
M  V30 60 1 30 54
M  V30 61 1 31 55
M  V30 62 1 32 56
M  V30 63 1 33 57
M  V30 64 1 34 58
M  V30 65 1 35 59
M  V30 66 1 37 60
M  V30 67 1 38 61
M  V30 68 1 39 62
M  V30 69 1 41 63
M  V30 END BOND
M  V30 END CTAB
M  END

$$$$
