
     RDKit          3D

  0  0  0  0  0  0  0  0  0  0999 V3000
M  V30 BEGIN CTAB
M  V30 COUNTS 63 69 0 0 0
M  V30 BEGIN ATOM
M  V30 1 C -12.3041 1.1424 0.0546 0
M  V30 2 C -11.5823 -0.0537 -0.0515 0
M  V30 3 C -10.1661 -0.0319 0.0253 0
M  V30 4 C -9.4430 -1.2480 -0.0889 0
M  V30 5 C -10.1465 -2.4539 -0.2436 0
M  V30 6 C -11.5398 -2.4632 -0.3117 0
M  V30 7 C -12.2563 -1.2706 -0.2233 0
M  V30 8 C -7.9633 -1.2986 -0.0691 0
M  V30 9 C -7.2167 -0.6590 -1.0722 0
M  V30 10 C -5.8202 -0.7266 -1.0628 0
M  V30 11 C -5.1586 -1.4421 -0.0571 0
M  V30 12 C -3.7213 -1.5122 -0.0482 0
M  V30 13 C -2.5174 -1.5711 -0.0404 0
M  V30 14 C -1.0836 -1.6416 -0.0306 0
M  V30 15 C -0.3346 -2.8106 -0.0289 0
M  V30 16 C 1.0450 -2.5741 -0.0170 0
M  V30 17 C 1.3617 -1.2223 -0.0096 0
M  V30 18 C 2.6901 -0.6783 0.0045 0
M  V30 19 C 3.8056 -0.2219 0.0167 0
M  V30 20 C 5.1377 0.3224 0.0317 0
M  V30 21 C 5.4524 1.4299 -0.7657 0
M  V30 22 C 6.7466 1.9591 -0.7513 0
M  V30 23 C 7.7397 1.3788 0.0538 0
M  V30 24 C 9.1033 1.9550 0.0847 0
M  V30 25 C 10.2516 1.2178 -0.3061 0
M  V30 26 C 11.5328 1.8176 -0.2029 0
M  V30 27 C 12.6725 1.0955 -0.5809 0
M  V30 28 C 12.5320 -0.2026 -1.0692 0
M  V30 29 N 11.2988 -0.7585 -1.1845 0
M  V30 30 C 10.1712 -0.0909 -0.8243 0
M  V30 31 C 11.6555 3.1324 0.2669 0
M  V30 32 C 10.5207 3.8576 0.6270 0
M  V30 33 C 9.2558 3.2765 0.5357 0
M  V30 34 C 7.4153 0.2769 0.8620 0
M  V30 35 C 6.1211 -0.2517 0.8469 0
M  V30 36 S -0.0527 -0.3135 -0.0174 0
M  V30 37 C -5.8991 -2.0931 0.9375 0
M  V30 38 C -7.2957 -2.0257 0.9293 0
M  V30 39 C -9.5321 1.2086 0.2417 0
M  V30 40 N -10.2664 2.3476 0.3437 0
M  V30 41 C -11.6207 2.3416 0.2494 0
M  V30 42 H -13.3859 1.1492 -0.0070 0
M  V30 43 H -9.6110 -3.3919 -0.3293 0
M  V30 44 H -12.0667 -3.4000 -0.4394 0
M  V30 45 H -13.3380 -1.3000 -0.2815 0
M  V30 46 H -7.7170 -0.1108 -1.8611 0
M  V30 47 H -5.2573 -0.2244 -1.8405 0
M  V30 48 H -0.7682 -3.8024 -0.0356 0
M  V30 49 H 1.7841 -3.3647 -0.0136 0
M  V30 50 H 4.6980 1.8841 -1.3968 0
M  V30 51 H 6.9772 2.8163 -1.3722 0
M  V30 52 H 13.6611 1.5324 -0.5048 0
M  V30 53 H 13.4056 -0.7675 -1.3658 0
M  V30 54 H 9.2198 -0.5855 -0.9595 0
M  V30 55 H 12.6288 3.6019 0.3484 0
M  V30 56 H 10.6220 4.8742 0.9845 0
M  V30 57 H 8.3900 3.8550 0.8353 0
M  V30 58 H 8.1645 -0.1700 1.5042 0
M  V30 59 H 5.8867 -1.1049 1.4722 0
M  V30 60 H -5.3974 -2.6530 1.7177 0
M  V30 61 H -7.8569 -2.5340 1.7039 0
M  V30 62 H -8.4588 1.2821 0.3446 0
M  V30 63 H -12.1691 3.2702 0.3348 0
M  V30 END ATOM
M  V30 BEGIN BOND
M  V30 1 2 1 2
M  V30 2 1 2 3
M  V30 3 1 3 4
M  V30 4 2 4 5
M  V30 5 1 5 6
M  V30 6 2 6 7
M  V30 7 1 4 8
M  V30 8 2 8 9
M  V30 9 1 9 10
M  V30 10 2 10 11
M  V30 11 1 11 12
M  V30 12 3 12 13
M  V30 13 1 13 14
M  V30 14 2 14 15
M  V30 15 1 15 16
M  V30 16 2 16 17
M  V30 17 1 17 18
M  V30 18 3 18 19
M  V30 19 1 19 20
M  V30 20 2 20 21
M  V30 21 1 21 22
M  V30 22 2 22 23
M  V30 23 1 23 24
M  V30 24 1 24 25
M  V30 25 1 25 26
M  V30 26 2 26 27
M  V30 27 1 27 28
M  V30 28 2 28 29
M  V30 29 1 29 30
M  V30 30 1 26 31
M  V30 31 2 31 32
M  V30 32 1 32 33
M  V30 33 1 23 34
M  V30 34 2 34 35
M  V30 35 1 17 36
M  V30 36 1 11 37
M  V30 37 2 37 38
M  V30 38 2 3 39
M  V30 39 1 39 40
M  V30 40 2 40 41
M  V30 41 1 41 1
M  V30 42 1 7 2
M  V30 43 1 38 8
M  V30 44 1 36 14
M  V30 45 1 35 20
M  V30 46 2 33 24
M  V30 47 2 30 25
M  V30 48 1 1 42
M  V30 49 1 5 43
M  V30 50 1 6 44
M  V30 51 1 7 45
M  V30 52 1 9 46
M  V30 53 1 10 47
M  V30 54 1 15 48
M  V30 55 1 16 49
M  V30 56 1 21 50
M  V30 57 1 22 51
M  V30 58 1 27 52
M  V30 59 1 28 53
M  V30 60 1 30 54
M  V30 61 1 31 55
M  V30 62 1 32 56
M  V30 63 1 33 57
M  V30 64 1 34 58
M  V30 65 1 35 59
M  V30 66 1 37 60
M  V30 67 1 38 61
M  V30 68 1 39 62
M  V30 69 1 41 63
M  V30 END BOND
M  V30 END CTAB
M  END

$$$$
