
     RDKit          3D

  0  0  0  0  0  0  0  0  0  0999 V3000
M  V30 BEGIN CTAB
M  V30 COUNTS 63 69 0 0 0
M  V30 BEGIN ATOM
M  V30 1 C -12.0921 2.6569 0.0555 0
M  V30 2 C -11.4702 1.4075 -0.0667 0
M  V30 3 C -10.0673 1.2978 0.1109 0
M  V30 4 C -9.4466 0.0270 -0.0100 0
M  V30 5 C -10.2304 -1.0928 -0.3334 0
M  V30 6 C -11.6088 -0.9712 -0.5116 0
M  V30 7 C -12.2292 0.2696 -0.3733 0
M  V30 8 C -7.9957 -0.1722 0.2069 0
M  V30 9 C -7.4245 0.0771 1.4654 0
M  V30 10 C -6.0560 -0.1228 1.6702 0
M  V30 11 C -5.2491 -0.5823 0.6219 0
M  V30 12 C -3.8382 -0.7747 0.8292 0
M  V30 13 C -2.6555 -0.9300 1.0010 0
M  V30 14 C -1.2456 -1.1074 1.2035 0
M  V30 15 C -0.6526 -1.6127 2.3534 0
M  V30 16 C 0.7445 -1.6506 2.2746 0
M  V30 17 C 1.2304 -1.1750 1.0639 0
M  V30 18 C 2.6163 -1.0739 0.7031 0
M  V30 19 C 3.7792 -0.9830 0.3993 0
M  V30 20 C 5.1666 -0.8672 0.0355 0
M  V30 21 C 6.0217 -1.9688 0.1643 0
M  V30 22 C 7.3703 -1.8545 -0.1880 0
M  V30 23 C 7.8770 -0.6343 -0.6632 0
M  V30 24 C 9.3001 -0.5211 -1.0556 0
M  V30 25 C 10.1953 0.3820 -0.4250 0
M  V30 26 C 11.5328 0.4743 -0.8877 0
M  V30 27 C 12.4216 1.3676 -0.2752 0
M  V30 28 C 11.9843 2.1455 0.7952 0
M  V30 29 N 10.7081 2.0325 1.2441 0
M  V30 30 C 9.8161 1.1812 0.6725 0
M  V30 31 C 11.9648 -0.3340 -1.9483 0
M  V30 32 C 11.0861 -1.2357 -2.5465 0
M  V30 33 C 9.7662 -1.3304 -2.1048 0
M  V30 34 C 7.0119 0.4631 -0.8040 0
M  V30 35 C 5.6639 0.3480 -0.4514 0
M  V30 36 S -0.0549 -0.7031 0.0878 0
M  V30 37 C -5.8171 -0.8480 -0.6303 0
M  V30 38 C -7.1857 -0.6489 -0.8359 0
M  V30 39 C -9.3376 2.4744 0.3765 0
M  V30 40 N -9.9755 3.6697 0.4838 0
M  V30 41 C -11.3203 3.7832 0.3367 0
M  V30 42 H -13.1633 2.7624 -0.0706 0
M  V30 43 H -9.7729 -2.0700 -0.4318 0
M  V30 44 H -12.2002 -1.8451 -0.7530 0
M  V30 45 H -13.3013 0.3413 -0.5131 0
M  V30 46 H -8.0393 0.4273 2.2855 0
M  V30 47 H -5.6276 0.0805 2.6443 0
M  V30 48 H -1.2083 -1.9386 3.2223 0
M  V30 49 H 1.3762 -2.0083 3.0772 0
M  V30 50 H 5.6463 -2.9147 0.5359 0
M  V30 51 H 8.0212 -2.7139 -0.0841 0
M  V30 52 H 13.4460 1.4582 -0.6165 0
M  V30 53 H 12.6640 2.8355 1.2771 0
M  V30 54 H 8.8213 1.1272 1.0914 0
M  V30 55 H 12.9849 -0.2738 -2.3091 0
M  V30 56 H 11.4276 -1.8613 -3.3613 0
M  V30 57 H 9.0976 -2.0274 -2.5958 0
M  V30 58 H 7.3823 1.4060 -1.1875 0
M  V30 59 H 5.0097 1.2046 -0.5608 0
M  V30 60 H -5.2021 -1.2065 -1.4472 0
M  V30 61 H -7.6130 -0.8565 -1.8093 0
M  V30 62 H -8.2626 2.4576 0.4871 0
M  V30 63 H -11.7909 4.7527 0.4303 0
M  V30 END ATOM
M  V30 BEGIN BOND
M  V30 1 2 1 2
M  V30 2 1 2 3
M  V30 3 1 3 4
M  V30 4 2 4 5
M  V30 5 1 5 6
M  V30 6 2 6 7
M  V30 7 1 4 8
M  V30 8 2 8 9
M  V30 9 1 9 10
M  V30 10 2 10 11
M  V30 11 1 11 12
M  V30 12 3 12 13
M  V30 13 1 13 14
M  V30 14 2 14 15
M  V30 15 1 15 16
M  V30 16 2 16 17
M  V30 17 1 17 18
M  V30 18 3 18 19
M  V30 19 1 19 20
M  V30 20 2 20 21
M  V30 21 1 21 22
M  V30 22 2 22 23
M  V30 23 1 23 24
M  V30 24 1 24 25
M  V30 25 1 25 26
M  V30 26 2 26 27
M  V30 27 1 27 28
M  V30 28 2 28 29
M  V30 29 1 29 30
M  V30 30 1 26 31
M  V30 31 2 31 32
M  V30 32 1 32 33
M  V30 33 1 23 34
M  V30 34 2 34 35
M  V30 35 1 17 36
M  V30 36 1 11 37
M  V30 37 2 37 38
M  V30 38 2 3 39
M  V30 39 1 39 40
M  V30 40 2 40 41
M  V30 41 1 41 1
M  V30 42 1 7 2
M  V30 43 1 38 8
M  V30 44 1 36 14
M  V30 45 1 35 20
M  V30 46 2 33 24
M  V30 47 2 30 25
M  V30 48 1 1 42
M  V30 49 1 5 43
M  V30 50 1 6 44
M  V30 51 1 7 45
M  V30 52 1 9 46
M  V30 53 1 10 47
M  V30 54 1 15 48
M  V30 55 1 16 49
M  V30 56 1 21 50
M  V30 57 1 22 51
M  V30 58 1 27 52
M  V30 59 1 28 53
M  V30 60 1 30 54
M  V30 61 1 31 55
M  V30 62 1 32 56
M  V30 63 1 33 57
M  V30 64 1 34 58
M  V30 65 1 35 59
M  V30 66 1 37 60
M  V30 67 1 38 61
M  V30 68 1 39 62
M  V30 69 1 41 63
M  V30 END BOND
M  V30 END CTAB
M  END

$$$$
