
     RDKit          3D

  0  0  0  0  0  0  0  0  0  0999 V3000
M  V30 BEGIN CTAB
M  V30 COUNTS 63 69 0 0 0
M  V30 BEGIN ATOM
M  V30 1 C -12.6393 1.6169 -0.2772 0
M  V30 2 C -11.6995 0.7477 0.2926 0
M  V30 3 C -10.3417 0.8130 -0.1128 0
M  V30 4 C -9.3957 -0.0679 0.4740 0
M  V30 5 C -9.8296 -1.0092 1.4222 0
M  V30 6 C -11.1690 -1.0678 1.8083 0
M  V30 7 C -12.1000 -0.1910 1.2535 0
M  V30 8 C -7.9541 -0.0262 0.1384 0
M  V30 9 C -7.1913 1.1193 0.4198 0
M  V30 10 C -5.8249 1.1463 0.1245 0
M  V30 11 C -5.2077 0.0256 -0.4450 0
M  V30 12 C -3.7999 0.0501 -0.7416 0
M  V30 13 C -2.6200 0.0674 -0.9874 0
M  V30 14 C -1.2139 0.0840 -1.2765 0
M  V30 15 C -0.6479 0.3544 -2.5152 0
M  V30 16 C 0.7504 0.2867 -2.5018 0
M  V30 17 C 1.2642 -0.0368 -1.2529 0
M  V30 18 C 2.6563 -0.1895 -0.9377 0
M  V30 19 C 3.8238 -0.3215 -0.6683 0
M  V30 20 C 5.2158 -0.4833 -0.3411 0
M  V30 21 C 5.8401 0.4147 0.5335 0
M  V30 22 C 7.1891 0.2502 0.8619 0
M  V30 23 C 7.9284 -0.8092 0.3103 0
M  V30 24 C 9.3483 -1.0058 0.6824 0
M  V30 25 C 10.3507 -0.0398 0.4052 0
M  V30 26 C 11.6811 -0.2728 0.8382 0
M  V30 27 C 12.6761 0.6776 0.5742 0
M  V30 28 C 12.3489 1.8377 -0.1257 0
M  V30 29 N 11.0769 2.0398 -0.5546 0
M  V30 30 C 10.0844 1.1429 -0.3142 0
M  V30 31 C 11.9996 -1.4555 1.5197 0
M  V30 32 C 11.0141 -2.4098 1.7673 0
M  V30 33 C 9.7010 -2.1893 1.3519 0
M  V30 34 C 7.2947 -1.7129 -0.5575 0
M  V30 35 C 5.9456 -1.5475 -0.8854 0
M  V30 36 S 0.0021 -0.2416 -0.1618 0
M  V30 37 C -5.9614 -1.1234 -0.7158 0
M  V30 38 C -7.3278 -1.1512 -0.4210 0
M  V30 39 C -9.9915 1.7428 -1.1130 0
M  V30 40 N -10.9319 2.5672 -1.6453 0
M  V30 41 C -12.2299 2.5287 -1.2490 0
M  V30 42 H -13.6806 1.5875 0.0219 0
M  V30 43 H -9.1221 -1.6914 1.8784 0
M  V30 44 H -11.4857 -1.7939 2.5460 0
M  V30 45 H -13.1349 -0.2516 1.5696 0
M  V30 46 H -7.6550 1.9883 0.8704 0
M  V30 47 H -5.2497 2.0378 0.3442 0
M  V30 48 H -1.2239 0.5893 -3.4012 0
M  V30 49 H 1.3630 0.4648 -3.3759 0
M  V30 50 H 5.2828 1.2370 0.9658 0
M  V30 51 H 7.6571 0.9440 1.5497 0
M  V30 52 H 13.6975 0.5222 0.9011 0
M  V30 53 H 13.1106 2.5765 -0.3366 0
M  V30 54 H 9.0981 1.3572 -0.7006 0
M  V30 55 H 13.0127 -1.6451 1.8542 0
M  V30 56 H 11.2677 -3.3234 2.2897 0
M  V30 57 H 8.9493 -2.9388 1.5695 0
M  V30 58 H 7.8470 -2.5423 -0.9822 0
M  V30 59 H 5.4710 -2.2509 -1.5592 0
M  V30 60 H -5.4926 -1.9975 -1.1518 0
M  V30 61 H -7.8992 -2.0465 -0.6333 0
M  V30 62 H -8.9798 1.8130 -1.4872 0
M  V30 63 H -12.9481 3.2029 -1.6963 0
M  V30 END ATOM
M  V30 BEGIN BOND
M  V30 1 2 1 2
M  V30 2 1 2 3
M  V30 3 1 3 4
M  V30 4 2 4 5
M  V30 5 1 5 6
M  V30 6 2 6 7
M  V30 7 1 4 8
M  V30 8 2 8 9
M  V30 9 1 9 10
M  V30 10 2 10 11
M  V30 11 1 11 12
M  V30 12 3 12 13
M  V30 13 1 13 14
M  V30 14 2 14 15
M  V30 15 1 15 16
M  V30 16 2 16 17
M  V30 17 1 17 18
M  V30 18 3 18 19
M  V30 19 1 19 20
M  V30 20 2 20 21
M  V30 21 1 21 22
M  V30 22 2 22 23
M  V30 23 1 23 24
M  V30 24 1 24 25
M  V30 25 1 25 26
M  V30 26 2 26 27
M  V30 27 1 27 28
M  V30 28 2 28 29
M  V30 29 1 29 30
M  V30 30 1 26 31
M  V30 31 2 31 32
M  V30 32 1 32 33
M  V30 33 1 23 34
M  V30 34 2 34 35
M  V30 35 1 17 36
M  V30 36 1 11 37
M  V30 37 2 37 38
M  V30 38 2 3 39
M  V30 39 1 39 40
M  V30 40 2 40 41
M  V30 41 1 41 1
M  V30 42 1 7 2
M  V30 43 1 38 8
M  V30 44 1 36 14
M  V30 45 1 35 20
M  V30 46 2 33 24
M  V30 47 2 30 25
M  V30 48 1 1 42
M  V30 49 1 5 43
M  V30 50 1 6 44
M  V30 51 1 7 45
M  V30 52 1 9 46
M  V30 53 1 10 47
M  V30 54 1 15 48
M  V30 55 1 16 49
M  V30 56 1 21 50
M  V30 57 1 22 51
M  V30 58 1 27 52
M  V30 59 1 28 53
M  V30 60 1 30 54
M  V30 61 1 31 55
M  V30 62 1 32 56
M  V30 63 1 33 57
M  V30 64 1 34 58
M  V30 65 1 35 59
M  V30 66 1 37 60
M  V30 67 1 38 61
M  V30 68 1 39 62
M  V30 69 1 41 63
M  V30 END BOND
M  V30 END CTAB
M  END

$$$$
