
     RDKit          3D

  0  0  0  0  0  0  0  0  0  0999 V3000
M  V30 BEGIN CTAB
M  V30 COUNTS 63 69 0 0 0
M  V30 BEGIN ATOM
M  V30 1 C 12.5167 0.1996 -2.4512 0
M  V30 2 C 11.3566 0.9579 -2.6568 0
M  V30 3 C 10.1118 0.4899 -2.1636 0
M  V30 4 C 8.9428 1.2678 -2.3713 0
M  V30 5 C 9.0367 2.4708 -3.0904 0
M  V30 6 C 10.2658 2.9175 -3.5760 0
M  V30 7 C 11.4223 2.1709 -3.3560 0
M  V30 8 C 7.6185 0.8709 -1.8412 0
M  V30 9 C 6.5470 0.6420 -2.7189 0
M  V30 10 C 5.2892 0.2906 -2.2194 0
M  V30 11 C 5.0896 0.1739 -0.8381 0
M  V30 12 C 3.7941 -0.1841 -0.3241 0
M  V30 13 C 2.7085 -0.4822 0.1069 0
M  V30 14 C 1.4152 -0.8347 0.6203 0
M  V30 15 C 1.1476 -1.9008 1.4684 0
M  V30 16 C -0.2066 -1.9997 1.8092 0
M  V30 17 C -0.9849 -1.0105 1.2237 0
M  V30 18 C -2.4019 -0.8552 1.3929 0
M  V30 19 C -3.5915 -0.7222 1.5347 0
M  V30 20 C -5.0113 -0.5603 1.7035 0
M  V30 21 C -5.7477 -1.5167 2.4139 0
M  V30 22 C -7.1270 -1.3579 2.5799 0
M  V30 23 C -7.7828 -0.2455 2.0288 0
M  V30 24 C -9.2390 -0.0665 2.2270 0
M  V30 25 C -10.1553 -0.0161 1.1442 0
M  V30 26 C -11.5308 0.2106 1.4056 0
M  V30 27 C -12.4417 0.2679 0.3426 0
M  V30 28 C -11.9861 0.0864 -0.9622 0
M  V30 29 N -10.6707 -0.1521 -1.1988 0
M  V30 30 C -9.7572 -0.2106 -0.1942 0
M  V30 31 C -11.9771 0.3670 2.7251 0
M  V30 32 C -11.0741 0.2930 3.7846 0
M  V30 33 C -9.7180 0.0765 3.5397 0
M  V30 34 C -7.0375 0.7174 1.3288 0
M  V30 35 C -5.6587 0.5576 1.1628 0
M  V30 36 S -0.0113 -0.0105 0.2865 0
M  V30 37 C 6.1519 0.4135 0.0424 0
M  V30 38 C 7.4098 0.7655 -0.4562 0
M  V30 39 C 10.0850 -0.7560 -1.5044 0
M  V30 40 N 11.2308 -1.4652 -1.3274 0
M  V30 41 C 12.4311 -1.0164 -1.7752 0
M  V30 42 H 13.4788 0.5413 -2.8143 0
M  V30 43 H 8.1543 3.0758 -3.2611 0
M  V30 44 H 10.3226 3.8510 -4.1209 0
M  V30 45 H 12.3673 2.5377 -3.7390 0
M  V30 46 H 6.6881 0.7300 -3.7893 0
M  V30 47 H 4.4729 0.1119 -2.9090 0
M  V30 48 H 1.9038 -2.5852 1.8306 0
M  V30 49 H -0.6014 -2.7679 2.4614 0
M  V30 50 H -5.2559 -2.3830 2.8401 0
M  V30 51 H -7.6851 -2.1042 3.1320 0
M  V30 52 H -13.4958 0.4458 0.5194 0
M  V30 53 H -12.6819 0.1266 -1.7896 0
M  V30 54 H -8.7290 -0.4226 -0.4508 0
M  V30 55 H -13.0257 0.5391 2.9374 0
M  V30 56 H -11.4259 0.4100 4.8015 0
M  V30 57 H -9.0333 0.0380 4.3785 0
M  V30 58 H -7.5248 1.5917 0.9148 0
M  V30 59 H -5.0974 1.3065 0.6168 0
M  V30 60 H 6.0067 0.3323 1.1130 0
M  V30 61 H 8.2206 0.9587 0.2355 0
M  V30 62 H 9.1604 -1.1803 -1.1395 0
M  V30 63 H 13.3208 -1.6102 -1.6134 0
M  V30 END ATOM
M  V30 BEGIN BOND
M  V30 1 2 1 2
M  V30 2 1 2 3
M  V30 3 1 3 4
M  V30 4 2 4 5
M  V30 5 1 5 6
M  V30 6 2 6 7
M  V30 7 1 4 8
M  V30 8 2 8 9
M  V30 9 1 9 10
M  V30 10 2 10 11
M  V30 11 1 11 12
M  V30 12 3 12 13
M  V30 13 1 13 14
M  V30 14 2 14 15
M  V30 15 1 15 16
M  V30 16 2 16 17
M  V30 17 1 17 18
M  V30 18 3 18 19
M  V30 19 1 19 20
M  V30 20 2 20 21
M  V30 21 1 21 22
M  V30 22 2 22 23
M  V30 23 1 23 24
M  V30 24 1 24 25
M  V30 25 1 25 26
M  V30 26 2 26 27
M  V30 27 1 27 28
M  V30 28 2 28 29
M  V30 29 1 29 30
M  V30 30 1 26 31
M  V30 31 2 31 32
M  V30 32 1 32 33
M  V30 33 1 23 34
M  V30 34 2 34 35
M  V30 35 1 17 36
M  V30 36 1 11 37
M  V30 37 2 37 38
M  V30 38 2 3 39
M  V30 39 1 39 40
M  V30 40 2 40 41
M  V30 41 1 41 1
M  V30 42 1 7 2
M  V30 43 1 38 8
M  V30 44 1 36 14
M  V30 45 1 35 20
M  V30 46 2 33 24
M  V30 47 2 30 25
M  V30 48 1 1 42
M  V30 49 1 5 43
M  V30 50 1 6 44
M  V30 51 1 7 45
M  V30 52 1 9 46
M  V30 53 1 10 47
M  V30 54 1 15 48
M  V30 55 1 16 49
M  V30 56 1 21 50
M  V30 57 1 22 51
M  V30 58 1 27 52
M  V30 59 1 28 53
M  V30 60 1 30 54
M  V30 61 1 31 55
M  V30 62 1 32 56
M  V30 63 1 33 57
M  V30 64 1 34 58
M  V30 65 1 35 59
M  V30 66 1 37 60
M  V30 67 1 38 61
M  V30 68 1 39 62
M  V30 69 1 41 63
M  V30 END BOND
M  V30 END CTAB
M  END

$$$$
