
     RDKit          3D

  0  0  0  0  0  0  0  0  0  0999 V3000
M  V30 BEGIN CTAB
M  V30 COUNTS 63 69 0 0 0
M  V30 BEGIN ATOM
M  V30 1 C -12.6114 0.9062 1.9882 0
M  V30 2 C -11.6891 0.9256 0.9340 0
M  V30 3 C -10.3048 0.7807 1.2066 0
M  V30 4 C -9.3779 0.7911 0.1322 0
M  V30 5 C -9.8467 0.9813 -1.1787 0
M  V30 6 C -11.2111 1.1308 -1.4333 0
M  V30 7 C -12.1300 1.0959 -0.3860 0
M  V30 8 C -7.9248 0.5906 0.3346 0
M  V30 9 C -7.4386 -0.6230 0.8471 0
M  V30 10 C -6.0628 -0.8180 1.0148 0
M  V30 11 C -5.1623 0.1948 0.6637 0
M  V30 12 C -3.7474 -0.0067 0.8327 0
M  V30 13 C -2.5612 -0.1702 0.9717 0
M  V30 14 C -1.1461 -0.3587 1.1324 0
M  V30 15 C -0.5023 -0.6575 2.3243 0
M  V30 16 C 0.8859 -0.7618 2.1805 0
M  V30 17 C 1.3147 -0.5381 0.8796 0
M  V30 18 C 2.6781 -0.5718 0.4315 0
M  V30 19 C 3.8225 -0.5998 0.0515 0
M  V30 20 C 5.1874 -0.6336 -0.4078 0
M  V30 21 C 5.8518 -1.8579 -0.5408 0
M  V30 22 C 7.1712 -1.8939 -1.0037 0
M  V30 23 C 7.8406 -0.7034 -1.3253 0
M  V30 24 C 9.2279 -0.7448 -1.8371 0
M  V30 25 C 10.3168 -0.1831 -1.1222 0
M  V30 26 C 11.6175 -0.2339 -1.6835 0
M  V30 27 C 12.6995 0.3090 -0.9806 0
M  V30 28 C 12.4859 0.8884 0.2697 0
M  V30 29 N 11.2387 0.9189 0.8032 0
M  V30 30 C 10.1645 0.4037 0.1503 0
M  V30 31 C 11.8192 -0.8394 -2.9318 0
M  V30 32 C 10.7466 -1.4027 -3.6208 0
M  V30 33 C 9.4627 -1.3610 -3.0776 0
M  V30 34 C 7.1709 0.5218 -1.1918 0
M  V30 35 C 5.8498 0.5566 -0.7332 0
M  V30 36 S -0.0121 -0.2139 -0.0998 0
M  V30 37 C -5.6406 1.4034 0.1423 0
M  V30 38 C -7.0157 1.5985 -0.0269 0
M  V30 39 C -9.9011 0.6561 2.5518 0
M  V30 40 N -10.8247 0.6430 3.5482 0
M  V30 41 C -12.1547 0.7566 3.2976 0
M  V30 42 H -13.6737 1.0130 1.8022 0
M  V30 43 H -9.1515 0.9988 -2.0103 0
M  V30 44 H -11.5589 1.2699 -2.4489 0
M  V30 45 H -13.1854 1.2112 -0.6064 0
M  V30 46 H -8.1255 -1.4172 1.1136 0
M  V30 47 H -5.7022 -1.7582 1.4123 0
M  V30 48 H -1.0166 -0.7978 3.2674 0
M  V30 49 H 1.5526 -0.9904 2.9992 0
M  V30 50 H 5.3478 -2.7847 -0.2947 0
M  V30 51 H 7.6724 -2.8483 -1.1050 0
M  V30 52 H 13.7014 0.2790 -1.3921 0
M  V30 53 H 13.3158 1.3087 0.8216 0
M  V30 54 H 9.2015 0.4451 0.6382 0
M  V30 55 H 12.8084 -0.8862 -3.3705 0
M  V30 56 H 10.9104 -1.8735 -4.5819 0
M  V30 57 H 8.6438 -1.8001 -3.6341 0
M  V30 58 H 7.6702 1.4480 -1.4481 0
M  V30 59 H 5.3434 1.5095 -0.6379 0
M  V30 60 H -4.9518 2.1924 -0.1391 0
M  V30 61 H -7.3726 2.5374 -0.4329 0
M  V30 62 H -8.8567 0.5793 2.8212 0
M  V30 63 H -12.8597 0.7417 4.1185 0
M  V30 END ATOM
M  V30 BEGIN BOND
M  V30 1 2 1 2
M  V30 2 1 2 3
M  V30 3 1 3 4
M  V30 4 2 4 5
M  V30 5 1 5 6
M  V30 6 2 6 7
M  V30 7 1 4 8
M  V30 8 2 8 9
M  V30 9 1 9 10
M  V30 10 2 10 11
M  V30 11 1 11 12
M  V30 12 3 12 13
M  V30 13 1 13 14
M  V30 14 2 14 15
M  V30 15 1 15 16
M  V30 16 2 16 17
M  V30 17 1 17 18
M  V30 18 3 18 19
M  V30 19 1 19 20
M  V30 20 2 20 21
M  V30 21 1 21 22
M  V30 22 2 22 23
M  V30 23 1 23 24
M  V30 24 1 24 25
M  V30 25 1 25 26
M  V30 26 2 26 27
M  V30 27 1 27 28
M  V30 28 2 28 29
M  V30 29 1 29 30
M  V30 30 1 26 31
M  V30 31 2 31 32
M  V30 32 1 32 33
M  V30 33 1 23 34
M  V30 34 2 34 35
M  V30 35 1 17 36
M  V30 36 1 11 37
M  V30 37 2 37 38
M  V30 38 2 3 39
M  V30 39 1 39 40
M  V30 40 2 40 41
M  V30 41 1 41 1
M  V30 42 1 7 2
M  V30 43 1 38 8
M  V30 44 1 36 14
M  V30 45 1 35 20
M  V30 46 2 33 24
M  V30 47 2 30 25
M  V30 48 1 1 42
M  V30 49 1 5 43
M  V30 50 1 6 44
M  V30 51 1 7 45
M  V30 52 1 9 46
M  V30 53 1 10 47
M  V30 54 1 15 48
M  V30 55 1 16 49
M  V30 56 1 21 50
M  V30 57 1 22 51
M  V30 58 1 27 52
M  V30 59 1 28 53
M  V30 60 1 30 54
M  V30 61 1 31 55
M  V30 62 1 32 56
M  V30 63 1 33 57
M  V30 64 1 34 58
M  V30 65 1 35 59
M  V30 66 1 37 60
M  V30 67 1 38 61
M  V30 68 1 39 62
M  V30 69 1 41 63
M  V30 END BOND
M  V30 END CTAB
M  END

$$$$
