
     RDKit          3D

  0  0  0  0  0  0  0  0  0  0999 V3000
M  V30 BEGIN CTAB
M  V30 COUNTS 63 69 0 0 0
M  V30 BEGIN ATOM
M  V30 1 C 12.6950 -0.1371 1.1399 0
M  V30 2 C 11.6883 -0.9128 0.5499 0
M  V30 3 C 10.3410 -0.4717 0.5944 0
M  V30 4 C 9.3286 -1.2614 -0.0110 0
M  V30 5 C 9.6773 -2.4808 -0.6146 0
M  V30 6 C 11.0053 -2.9068 -0.6468 0
M  V30 7 C 12.0085 -2.1261 -0.0745 0
M  V30 8 C 7.9091 -0.8422 -0.0491 0
M  V30 9 C 7.5305 0.3239 -0.7344 0
M  V30 10 C 6.1866 0.7059 -0.7866 0
M  V30 11 C 5.2088 -0.0790 -0.1630 0
M  V30 12 C 3.8257 0.3146 -0.2171 0
M  V30 13 C 2.6673 0.6447 -0.2623 0
M  V30 14 C 1.2878 1.0384 -0.3160 0
M  V30 15 C 0.8251 2.3461 -0.3754 0
M  V30 16 C -0.5715 2.4286 -0.4185 0
M  V30 17 C -1.1877 1.1847 -0.3926 0
M  V30 18 C -2.6046 0.9564 -0.4251 0
M  V30 19 C -3.7944 0.7651 -0.4524 0
M  V30 20 C -5.2149 0.5375 -0.4848 0
M  V30 21 C -5.7142 -0.7601 -0.6533 0
M  V30 22 C -7.0945 -0.9817 -0.6851 0
M  V30 23 C -7.9872 0.0920 -0.5390 0
M  V30 24 C -9.4481 -0.1419 -0.5961 0
M  V30 25 C -10.3116 0.1595 0.4894 0
M  V30 26 C -11.7080 -0.0436 0.3460 0
M  V30 27 C -12.5686 0.2566 1.4101 0
M  V30 28 C -12.0391 0.7390 2.6060 0
M  V30 29 N -10.6988 0.9085 2.7395 0
M  V30 30 C -9.8335 0.6322 1.7286 0
M  V30 31 C -12.2227 -0.5525 -0.8544 0
M  V30 32 C -11.3655 -0.8676 -1.9076 0
M  V30 33 C -9.9909 -0.6665 -1.7807 0
M  V30 34 C -7.4814 1.3931 -0.3842 0
M  V30 35 C -6.1012 1.6137 -0.3523 0
M  V30 36 S -0.0181 -0.0205 -0.3164 0
M  V30 37 C 5.5795 -1.2501 0.5098 0
M  V30 38 C 6.9233 -1.6328 0.5627 0
M  V30 39 C 10.0589 0.7331 1.2699 0
M  V30 40 N 11.0619 1.4565 1.8338 0
M  V30 41 C 12.3576 1.0553 1.7781 0
M  V30 42 H 13.7313 -0.4525 1.1125 0
M  V30 43 H 8.9172 -3.0978 -1.0790 0
M  V30 44 H 11.2587 -3.8452 -1.1233 0
M  V30 45 H 13.0339 -2.4743 -0.1132 0
M  V30 46 H 8.2762 0.9343 -1.2290 0
M  V30 47 H 5.9100 1.6104 -1.3149 0
M  V30 48 H 1.4730 3.2130 -0.3871 0
M  V30 49 H -1.1109 3.3658 -0.4669 0
M  V30 50 H -5.0373 -1.5991 -0.7611 0
M  V30 51 H -7.4680 -1.9899 -0.8166 0
M  V30 52 H -13.6390 0.1145 1.3199 0
M  V30 53 H -12.6950 0.9715 3.4342 0
M  V30 54 H -8.7770 0.7720 1.9084 0
M  V30 55 H -13.2874 -0.7136 -0.9751 0
M  V30 56 H -11.7689 -1.2648 -2.8302 0
M  V30 57 H -9.3464 -0.9050 -2.6183 0
M  V30 58 H -8.1565 2.2350 -0.2904 0
M  V30 59 H -5.7255 2.6222 -0.2276 0
M  V30 60 H 4.8305 -1.8668 0.9919 0
M  V30 61 H 7.1970 -2.5410 1.0858 0
M  V30 62 H 9.0472 1.1008 1.3672 0
M  V30 63 H 13.1273 1.6602 2.2385 0
M  V30 END ATOM
M  V30 BEGIN BOND
M  V30 1 2 1 2
M  V30 2 1 2 3
M  V30 3 1 3 4
M  V30 4 2 4 5
M  V30 5 1 5 6
M  V30 6 2 6 7
M  V30 7 1 4 8
M  V30 8 2 8 9
M  V30 9 1 9 10
M  V30 10 2 10 11
M  V30 11 1 11 12
M  V30 12 3 12 13
M  V30 13 1 13 14
M  V30 14 2 14 15
M  V30 15 1 15 16
M  V30 16 2 16 17
M  V30 17 1 17 18
M  V30 18 3 18 19
M  V30 19 1 19 20
M  V30 20 2 20 21
M  V30 21 1 21 22
M  V30 22 2 22 23
M  V30 23 1 23 24
M  V30 24 1 24 25
M  V30 25 1 25 26
M  V30 26 2 26 27
M  V30 27 1 27 28
M  V30 28 2 28 29
M  V30 29 1 29 30
M  V30 30 1 26 31
M  V30 31 2 31 32
M  V30 32 1 32 33
M  V30 33 1 23 34
M  V30 34 2 34 35
M  V30 35 1 17 36
M  V30 36 1 11 37
M  V30 37 2 37 38
M  V30 38 2 3 39
M  V30 39 1 39 40
M  V30 40 2 40 41
M  V30 41 1 41 1
M  V30 42 1 7 2
M  V30 43 1 38 8
M  V30 44 1 36 14
M  V30 45 1 35 20
M  V30 46 2 33 24
M  V30 47 2 30 25
M  V30 48 1 1 42
M  V30 49 1 5 43
M  V30 50 1 6 44
M  V30 51 1 7 45
M  V30 52 1 9 46
M  V30 53 1 10 47
M  V30 54 1 15 48
M  V30 55 1 16 49
M  V30 56 1 21 50
M  V30 57 1 22 51
M  V30 58 1 27 52
M  V30 59 1 28 53
M  V30 60 1 30 54
M  V30 61 1 31 55
M  V30 62 1 32 56
M  V30 63 1 33 57
M  V30 64 1 34 58
M  V30 65 1 35 59
M  V30 66 1 37 60
M  V30 67 1 38 61
M  V30 68 1 39 62
M  V30 69 1 41 63
M  V30 END BOND
M  V30 END CTAB
M  END

$$$$
