
     RDKit          3D

  0  0  0  0  0  0  0  0  0  0999 V3000
M  V30 BEGIN CTAB
M  V30 COUNTS 63 69 0 0 0
M  V30 BEGIN ATOM
M  V30 1 C -12.2058 -2.3332 0.7637 0
M  V30 2 C -11.4160 -1.6979 -0.2036 0
M  V30 3 C -10.0905 -1.3060 0.1148 0
M  V30 4 C -9.2957 -0.6682 -0.8733 0
M  V30 5 C -9.8492 -0.4085 -2.1379 0
M  V30 6 C -11.1562 -0.7933 -2.4372 0
M  V30 7 C -11.9356 -1.4408 -1.4797 0
M  V30 8 C -7.8885 -0.2767 -0.6314 0
M  V30 9 C -6.9167 -1.2525 -0.3556 0
M  V30 10 C -5.5845 -0.8819 -0.1490 0
M  V30 11 C -5.2105 0.4655 -0.2260 0
M  V30 12 C -3.8390 0.8464 -0.0141 0
M  V30 13 C -2.6903 1.1655 0.1632 0
M  V30 14 C -1.3221 1.5454 0.3741 0
M  V30 15 C -0.8963 2.7241 0.9715 0
M  V30 16 C 0.4980 2.8264 1.0425 0
M  V30 17 C 1.1491 1.7267 0.5000 0
M  V30 18 C 2.5723 1.5516 0.4313 0
M  V30 19 C 3.7672 1.4046 0.3733 0
M  V30 20 C 5.1938 1.2290 0.3038 0
M  V30 21 C 5.9277 1.8447 -0.7178 0
M  V30 22 C 7.3139 1.6746 -0.7859 0
M  V30 23 C 7.9767 0.8791 0.1623 0
M  V30 24 C 9.4474 0.7192 0.1016 0
M  V30 25 C 10.0706 -0.5441 -0.0732 0
M  V30 26 C 11.4864 -0.6286 -0.0723 0
M  V30 27 C 12.1102 -1.8721 -0.2385 0
M  V30 28 C 11.3296 -3.0130 -0.4180 0
M  V30 29 N 9.9756 -2.9170 -0.4393 0
M  V30 30 C 9.3350 -1.7294 -0.2774 0
M  V30 31 C 12.2577 0.5312 0.0849 0
M  V30 32 C 11.6381 1.7711 0.2331 0
M  V30 33 C 10.2464 1.8662 0.2399 0
M  V30 34 C 7.2380 0.2751 1.1929 0
M  V30 35 C 5.8520 0.4455 1.2599 0
M  V30 36 S 0.0134 0.6252 -0.0688 0
M  V30 37 C -6.1733 1.4408 -0.5142 0
M  V30 38 C -7.5059 1.0712 -0.7207 0
M  V30 39 C -9.6236 -1.5456 1.4233 0
M  V30 40 N -10.4208 -2.1608 2.3360 0
M  V30 41 C -11.6831 -2.5602 2.0358 0
M  V30 42 H -13.2189 -2.6460 0.5399 0
M  V30 43 H -9.2581 0.0802 -2.9033 0
M  V30 44 H -11.5652 -0.5934 -3.4193 0
M  V30 45 H -12.9474 -1.7339 -1.7340 0
M  V30 46 H -7.1916 -2.2989 -0.3031 0
M  V30 47 H -4.8465 -1.6451 0.0674 0
M  V30 48 H -1.5685 3.4863 1.3441 0
M  V30 49 H 1.0109 3.6755 1.4755 0
M  V30 50 H 5.4290 2.4563 -1.4601 0
M  V30 51 H 7.8701 2.1565 -1.5806 0
M  V30 52 H 13.1902 -1.9600 -0.2353 0
M  V30 53 H 11.8018 -3.9774 -0.5494 0
M  V30 54 H 8.2553 -1.7212 -0.3237 0
M  V30 55 H 13.3402 0.4794 0.0855 0
M  V30 56 H 12.2396 2.6635 0.3492 0
M  V30 57 H 9.7878 2.8391 0.3711 0
M  V30 58 H 7.7367 -0.3252 1.9441 0
M  V30 59 H 5.2946 -0.0303 2.0579 0
M  V30 60 H -5.8938 2.4855 -0.5803 0
M  V30 61 H -8.2408 1.8350 -0.9436 0
M  V30 62 H -8.6356 -1.2369 1.7341 0
M  V30 63 H -12.2858 -3.0479 2.7903 0
M  V30 END ATOM
M  V30 BEGIN BOND
M  V30 1 2 1 2
M  V30 2 1 2 3
M  V30 3 1 3 4
M  V30 4 2 4 5
M  V30 5 1 5 6
M  V30 6 2 6 7
M  V30 7 1 4 8
M  V30 8 2 8 9
M  V30 9 1 9 10
M  V30 10 2 10 11
M  V30 11 1 11 12
M  V30 12 3 12 13
M  V30 13 1 13 14
M  V30 14 2 14 15
M  V30 15 1 15 16
M  V30 16 2 16 17
M  V30 17 1 17 18
M  V30 18 3 18 19
M  V30 19 1 19 20
M  V30 20 2 20 21
M  V30 21 1 21 22
M  V30 22 2 22 23
M  V30 23 1 23 24
M  V30 24 1 24 25
M  V30 25 1 25 26
M  V30 26 2 26 27
M  V30 27 1 27 28
M  V30 28 2 28 29
M  V30 29 1 29 30
M  V30 30 1 26 31
M  V30 31 2 31 32
M  V30 32 1 32 33
M  V30 33 1 23 34
M  V30 34 2 34 35
M  V30 35 1 17 36
M  V30 36 1 11 37
M  V30 37 2 37 38
M  V30 38 2 3 39
M  V30 39 1 39 40
M  V30 40 2 40 41
M  V30 41 1 41 1
M  V30 42 1 7 2
M  V30 43 1 38 8
M  V30 44 1 36 14
M  V30 45 1 35 20
M  V30 46 2 33 24
M  V30 47 2 30 25
M  V30 48 1 1 42
M  V30 49 1 5 43
M  V30 50 1 6 44
M  V30 51 1 7 45
M  V30 52 1 9 46
M  V30 53 1 10 47
M  V30 54 1 15 48
M  V30 55 1 16 49
M  V30 56 1 21 50
M  V30 57 1 22 51
M  V30 58 1 27 52
M  V30 59 1 28 53
M  V30 60 1 30 54
M  V30 61 1 31 55
M  V30 62 1 32 56
M  V30 63 1 33 57
M  V30 64 1 34 58
M  V30 65 1 35 59
M  V30 66 1 37 60
M  V30 67 1 38 61
M  V30 68 1 39 62
M  V30 69 1 41 63
M  V30 END BOND
M  V30 END CTAB
M  END

$$$$
