
     RDKit          3D

  0  0  0  0  0  0  0  0  0  0999 V3000
M  V30 BEGIN CTAB
M  V30 COUNTS 63 69 0 0 0
M  V30 BEGIN ATOM
M  V30 1 C -11.5324 3.7818 -1.0825 0
M  V30 2 C -11.1432 2.4854 -0.7213 0
M  V30 3 C -9.7652 2.1628 -0.6297 0
M  V30 4 C -9.3805 0.8454 -0.2686 0
M  V30 5 C -10.3730 -0.1050 0.0219 0
M  V30 6 C -11.7249 0.2257 -0.0664 0
M  V30 7 C -12.1112 1.5111 -0.4419 0
M  V30 8 C -7.9642 0.4205 -0.2007 0
M  V30 9 C -7.1636 0.4275 -1.3546 0
M  V30 10 C -5.8342 -0.0012 -1.2926 0
M  V30 11 C -5.2971 -0.4499 -0.0795 0
M  V30 12 C -3.9300 -0.8950 -0.0161 0
M  V30 13 C -2.7855 -1.2692 0.0388 0
M  V30 14 C -1.4233 -1.7165 0.1063 0
M  V30 15 C -1.0155 -3.0298 0.2964 0
M  V30 16 C 0.3771 -3.1692 0.3261 0
M  V30 17 C 1.0450 -1.9636 0.1588 0
M  V30 18 C 2.4706 -1.7954 0.1497 0
M  V30 19 C 3.6677 -1.6545 0.1436 0
M  V30 20 C 5.0968 -1.4861 0.1377 0
M  V30 21 C 5.8033 -1.5241 -1.0710 0
M  V30 22 C 7.1919 -1.3596 -1.0772 0
M  V30 23 C 7.8847 -1.1463 0.1254 0
M  V30 24 C 9.3578 -0.9973 0.1192 0
M  V30 25 C 10.0087 0.1729 0.5904 0
M  V30 26 C 11.4261 0.2240 0.6042 0
M  V30 27 C 12.0773 1.3717 1.0750 0
M  V30 28 C 11.3225 2.4587 1.5117 0
M  V30 29 N 9.9665 2.4078 1.4716 0
M  V30 30 C 9.2994 1.3111 1.0252 0
M  V30 31 C 12.1715 -0.8678 0.1385 0
M  V30 32 C 11.5247 -2.0042 -0.3447 0
M  V30 33 C 10.1316 -2.0695 -0.3558 0
M  V30 34 C 7.1733 -1.1238 1.3361 0
M  V30 35 C 5.7849 -1.2878 1.3412 0
M  V30 36 S -0.0737 -0.7221 -0.0250 0
M  V30 37 C -6.0952 -0.4701 1.0711 0
M  V30 38 C -7.4244 -0.0410 1.0101 0
M  V30 39 C -8.8264 3.1844 -0.8781 0
M  V30 40 N -9.2423 4.4314 -1.2231 0
M  V30 41 C -10.5580 4.7455 -1.3356 0
M  V30 42 H -12.5793 4.0486 -1.1630 0
M  V30 43 H -10.0978 -1.1145 0.3023 0
M  V30 44 H -12.4775 -0.5208 0.1524 0
M  V30 45 H -13.1670 1.7459 -0.5070 0
M  V30 46 H -7.5708 0.7611 -2.3012 0
M  V30 47 H -5.2274 0.0129 -2.1900 0
M  V30 48 H -1.6992 -3.8607 0.4121 0
M  V30 49 H 0.8770 -4.1185 0.4667 0
M  V30 50 H 5.2814 -1.6823 -2.0073 0
M  V30 51 H 7.7267 -1.3918 -2.0186 0
M  V30 52 H 13.1592 1.4290 1.1002 0
M  V30 53 H 11.8158 3.3499 1.8756 0
M  V30 54 H 8.2195 1.3449 1.0020 0
M  V30 55 H 13.2547 -0.8394 0.1410 0
M  V30 56 H 12.1065 -2.8422 -0.7069 0
M  V30 57 H 9.6521 -2.9700 -0.7207 0
M  V30 58 H 7.6951 -0.9816 2.2745 0
M  V30 59 H 5.2489 -1.2634 2.2823 0
M  V30 60 H -5.6909 -0.8195 2.0136 0
M  V30 61 H -8.0314 -0.0629 1.9067 0
M  V30 62 H -7.7643 3.0068 -0.7883 0
M  V30 63 H -10.8485 5.7496 -1.6141 0
M  V30 END ATOM
M  V30 BEGIN BOND
M  V30 1 2 1 2
M  V30 2 1 2 3
M  V30 3 1 3 4
M  V30 4 2 4 5
M  V30 5 1 5 6
M  V30 6 2 6 7
M  V30 7 1 4 8
M  V30 8 2 8 9
M  V30 9 1 9 10
M  V30 10 2 10 11
M  V30 11 1 11 12
M  V30 12 3 12 13
M  V30 13 1 13 14
M  V30 14 2 14 15
M  V30 15 1 15 16
M  V30 16 2 16 17
M  V30 17 1 17 18
M  V30 18 3 18 19
M  V30 19 1 19 20
M  V30 20 2 20 21
M  V30 21 1 21 22
M  V30 22 2 22 23
M  V30 23 1 23 24
M  V30 24 1 24 25
M  V30 25 1 25 26
M  V30 26 2 26 27
M  V30 27 1 27 28
M  V30 28 2 28 29
M  V30 29 1 29 30
M  V30 30 1 26 31
M  V30 31 2 31 32
M  V30 32 1 32 33
M  V30 33 1 23 34
M  V30 34 2 34 35
M  V30 35 1 17 36
M  V30 36 1 11 37
M  V30 37 2 37 38
M  V30 38 2 3 39
M  V30 39 1 39 40
M  V30 40 2 40 41
M  V30 41 1 41 1
M  V30 42 1 7 2
M  V30 43 1 38 8
M  V30 44 1 36 14
M  V30 45 1 35 20
M  V30 46 2 33 24
M  V30 47 2 30 25
M  V30 48 1 1 42
M  V30 49 1 5 43
M  V30 50 1 6 44
M  V30 51 1 7 45
M  V30 52 1 9 46
M  V30 53 1 10 47
M  V30 54 1 15 48
M  V30 55 1 16 49
M  V30 56 1 21 50
M  V30 57 1 22 51
M  V30 58 1 27 52
M  V30 59 1 28 53
M  V30 60 1 30 54
M  V30 61 1 31 55
M  V30 62 1 32 56
M  V30 63 1 33 57
M  V30 64 1 34 58
M  V30 65 1 35 59
M  V30 66 1 37 60
M  V30 67 1 38 61
M  V30 68 1 39 62
M  V30 69 1 41 63
M  V30 END BOND
M  V30 END CTAB
M  END

$$$$
