
     RDKit          3D

  0  0  0  0  0  0  0  0  0  0999 V3000
M  V30 BEGIN CTAB
M  V30 COUNTS 63 69 0 0 0
M  V30 BEGIN ATOM
M  V30 1 C 12.4009 -1.0337 -0.5677 0
M  V30 2 C 11.6097 -0.0445 0.0312 0
M  V30 3 C 10.2161 -0.0023 -0.2296 0
M  V30 4 C 9.4215 0.9997 0.3865 0
M  V30 5 C 10.0371 1.9505 1.2172 0
M  V30 6 C 11.4098 1.9024 1.4610 0
M  V30 7 C 12.1934 0.9075 0.8783 0
M  V30 8 C 7.9542 1.0751 0.2037 0
M  V30 9 C 7.3723 2.2175 -0.3688 0
M  V30 10 C 5.9850 2.3001 -0.5227 0
M  V30 11 C 5.1671 1.2460 -0.0970 0
M  V30 12 C 3.7393 1.3316 -0.2551 0
M  V30 13 C 2.5433 1.4030 -0.3868 0
M  V30 14 C 1.1188 1.4875 -0.5426 0
M  V30 15 C 0.4431 2.4679 -1.2567 0
M  V30 16 C -0.9463 2.2983 -1.2344 0
M  V30 17 C -1.3437 1.1872 -0.5029 0
M  V30 18 C -2.7005 0.7631 -0.3030 0
M  V30 19 C -3.8395 0.4068 -0.1342 0
M  V30 20 C -5.1992 -0.0190 0.0682 0
M  V30 21 C -6.2580 0.8479 -0.2292 0
M  V30 22 C -7.5790 0.4349 -0.0311 0
M  V30 23 C -7.8524 -0.8536 0.4569 0
M  V30 24 C -9.2492 -1.2861 0.6895 0
M  V30 25 C -10.2009 -1.3873 -0.3588 0
M  V30 26 C -11.5344 -1.7627 -0.0551 0
M  V30 27 C -12.4818 -1.8604 -1.0827 0
M  V30 28 C -12.0978 -1.6006 -2.3973 0
M  V30 29 N -10.8135 -1.2633 -2.6790 0
M  V30 30 C -9.8679 -1.1547 -1.7089 0
M  V30 31 C -11.8991 -2.0447 1.2686 0
M  V30 32 C -10.9530 -1.9646 2.2893 0
M  V30 33 C -9.6398 -1.5907 2.0039 0
M  V30 34 C -6.7870 -1.7139 0.7659 0
M  V30 35 C -5.4663 -1.2998 0.5679 0
M  V30 36 S 0.0110 0.4095 0.1186 0
M  V30 37 C 5.7415 0.1101 0.4871 0
M  V30 38 C 7.1285 0.0267 0.6417 0
M  V30 39 C 9.6789 -0.9526 -1.1218 0
M  V30 40 N 10.4789 -1.8948 -1.6868 0
M  V30 41 C 11.8098 -1.9586 -1.4269 0
M  V30 42 H 13.4663 -1.0878 -0.3774 0
M  V30 43 H 9.4466 2.7242 1.6934 0
M  V30 44 H 11.8678 2.6374 2.1104 0
M  V30 45 H 13.2573 0.8863 1.0837 0
M  V30 46 H 7.9941 3.0398 -0.7014 0
M  V30 47 H 5.5505 3.1852 -0.9719 0
M  V30 48 H 0.9352 3.2794 -1.7771 0
M  V30 49 H -1.6352 2.9657 -1.7360 0
M  V30 50 H -6.0624 1.8430 -0.6106 0
M  V30 51 H -8.3891 1.1180 -0.2555 0
M  V30 52 H -13.5071 -2.1404 -0.8721 0
M  V30 53 H -12.8214 -1.6753 -3.1979 0
M  V30 54 H -8.8599 -0.9003 -2.0045 0
M  V30 55 H -12.9142 -2.3345 1.5128 0
M  V30 56 H -11.2401 -2.1879 3.3087 0
M  V30 57 H -8.9260 -1.5215 2.8161 0
M  V30 58 H -6.9801 -2.7067 1.1536 0
M  V30 59 H -4.6545 -1.9767 0.8055 0
M  V30 60 H 5.1174 -0.7085 0.8253 0
M  V30 61 H 7.5599 -0.8529 1.1037 0
M  V30 62 H 8.6311 -0.9471 -1.3866 0
M  V30 63 H 12.4125 -2.7249 -1.8957 0
M  V30 END ATOM
M  V30 BEGIN BOND
M  V30 1 2 1 2
M  V30 2 1 2 3
M  V30 3 1 3 4
M  V30 4 2 4 5
M  V30 5 1 5 6
M  V30 6 2 6 7
M  V30 7 1 4 8
M  V30 8 2 8 9
M  V30 9 1 9 10
M  V30 10 2 10 11
M  V30 11 1 11 12
M  V30 12 3 12 13
M  V30 13 1 13 14
M  V30 14 2 14 15
M  V30 15 1 15 16
M  V30 16 2 16 17
M  V30 17 1 17 18
M  V30 18 3 18 19
M  V30 19 1 19 20
M  V30 20 2 20 21
M  V30 21 1 21 22
M  V30 22 2 22 23
M  V30 23 1 23 24
M  V30 24 1 24 25
M  V30 25 1 25 26
M  V30 26 2 26 27
M  V30 27 1 27 28
M  V30 28 2 28 29
M  V30 29 1 29 30
M  V30 30 1 26 31
M  V30 31 2 31 32
M  V30 32 1 32 33
M  V30 33 1 23 34
M  V30 34 2 34 35
M  V30 35 1 17 36
M  V30 36 1 11 37
M  V30 37 2 37 38
M  V30 38 2 3 39
M  V30 39 1 39 40
M  V30 40 2 40 41
M  V30 41 1 41 1
M  V30 42 1 7 2
M  V30 43 1 38 8
M  V30 44 1 36 14
M  V30 45 1 35 20
M  V30 46 2 33 24
M  V30 47 2 30 25
M  V30 48 1 1 42
M  V30 49 1 5 43
M  V30 50 1 6 44
M  V30 51 1 7 45
M  V30 52 1 9 46
M  V30 53 1 10 47
M  V30 54 1 15 48
M  V30 55 1 16 49
M  V30 56 1 21 50
M  V30 57 1 22 51
M  V30 58 1 27 52
M  V30 59 1 28 53
M  V30 60 1 30 54
M  V30 61 1 31 55
M  V30 62 1 32 56
M  V30 63 1 33 57
M  V30 64 1 34 58
M  V30 65 1 35 59
M  V30 66 1 37 60
M  V30 67 1 38 61
M  V30 68 1 39 62
M  V30 69 1 41 63
M  V30 END BOND
M  V30 END CTAB
M  END

$$$$
