
     RDKit          3D

  0  0  0  0  0  0  0  0  0  0999 V3000
M  V30 BEGIN CTAB
M  V30 COUNTS 63 69 0 0 0
M  V30 BEGIN ATOM
M  V30 1 C 12.7493 0.2588 -0.7270 0
M  V30 2 C 11.6760 -0.5026 -1.2081 0
M  V30 3 C 10.3644 -0.2543 -0.7287 0
M  V30 4 C 9.2825 -1.0269 -1.2260 0
M  V30 5 C 9.5372 -2.0446 -2.1601 0
M  V30 6 C 10.8325 -2.2833 -2.6196 0
M  V30 7 C 11.8972 -1.5137 -2.1533 0
M  V30 8 C 7.8807 -0.7924 -0.8112 0
M  V30 9 C 7.1549 -1.8097 -0.1713 0
M  V30 10 C 5.8240 -1.5983 0.2017 0
M  V30 11 C 5.2047 -0.3720 -0.0700 0
M  V30 12 C 3.8348 -0.1552 0.3137 0
M  V30 13 C 2.6873 0.0261 0.6351 0
M  V30 14 C 1.3206 0.2417 1.0177 0
M  V30 15 C 0.8995 0.9096 2.1598 0
M  V30 16 C -0.4944 0.9676 2.2746 0
M  V30 17 C -1.1499 0.3445 1.2211 0
M  V30 18 C -2.5738 0.2456 1.0680 0
M  V30 19 C -3.7694 0.1628 0.9392 0
M  V30 20 C -5.1968 0.0644 0.7853 0
M  V30 21 C -6.0372 0.2712 1.8862 0
M  V30 22 C -7.4241 0.1763 1.7369 0
M  V30 23 C -7.9828 -0.1166 0.4820 0
M  V30 24 C -9.4499 -0.2389 0.3252 0
M  V30 25 C -10.3352 0.8449 0.5629 0
M  V30 26 C -11.7336 0.6420 0.4402 0
M  V30 27 C -12.6152 1.7046 0.6783 0
M  V30 28 C -12.1053 2.9562 1.0198 0
M  V30 29 N -10.7640 3.1444 1.1128 0
M  V30 30 C -9.8784 2.1371 0.8932 0
M  V30 31 C -12.2297 -0.6162 0.0722 0
M  V30 32 C -11.3524 -1.6695 -0.1816 0
M  V30 33 C -9.9753 -1.4838 -0.0585 0
M  V30 34 C -7.1353 -0.3367 -0.6154 0
M  V30 35 C -5.7484 -0.2419 -0.4650 0
M  V30 36 S -0.0187 -0.2796 0.1454 0
M  V30 37 C 5.9202 0.6413 -0.7201 0
M  V30 38 C 7.2509 0.4307 -1.0938 0
M  V30 39 C 10.1943 0.7430 0.2531 0
M  V30 40 N 11.2605 1.4584 0.6986 0
M  V30 41 C 12.5167 1.2446 0.2307 0
M  V30 42 H 13.7583 0.0896 -1.0839 0
M  V30 43 H 8.7239 -2.6462 -2.5482 0
M  V30 44 H 11.0108 -3.0658 -3.3459 0
M  V30 45 H 12.8950 -1.7138 -2.5256 0
M  V30 46 H 7.6221 -2.7628 0.0441 0
M  V30 47 H 5.2782 -2.3904 0.7002 0
M  V30 48 H 1.5748 1.3414 2.8872 0
M  V30 49 H -1.0040 1.4487 3.0994 0
M  V30 50 H -5.6207 0.5026 2.8592 0
M  V30 51 H -8.0632 0.3289 2.5981 0
M  V30 52 H -13.6872 1.5700 0.5956 0
M  V30 53 H -12.7776 3.7836 1.2033 0
M  V30 54 H -8.8234 2.3601 0.9658 0
M  V30 55 H -13.2959 -0.7829 -0.0266 0
M  V30 56 H -11.7418 -2.6373 -0.4702 0
M  V30 57 H -9.3142 -2.3213 -0.2470 0
M  V30 58 H -7.5494 -0.5745 -1.5876 0
M  V30 59 H -5.1070 -0.4079 -1.3223 0
M  V30 60 H 5.4489 1.5916 -0.9405 0
M  V30 61 H 7.7905 1.2187 -1.6049 0
M  V30 62 H 9.2243 0.9518 0.6816 0
M  V30 63 H 13.3391 1.8363 0.6101 0
M  V30 END ATOM
M  V30 BEGIN BOND
M  V30 1 2 1 2
M  V30 2 1 2 3
M  V30 3 1 3 4
M  V30 4 2 4 5
M  V30 5 1 5 6
M  V30 6 2 6 7
M  V30 7 1 4 8
M  V30 8 2 8 9
M  V30 9 1 9 10
M  V30 10 2 10 11
M  V30 11 1 11 12
M  V30 12 3 12 13
M  V30 13 1 13 14
M  V30 14 2 14 15
M  V30 15 1 15 16
M  V30 16 2 16 17
M  V30 17 1 17 18
M  V30 18 3 18 19
M  V30 19 1 19 20
M  V30 20 2 20 21
M  V30 21 1 21 22
M  V30 22 2 22 23
M  V30 23 1 23 24
M  V30 24 1 24 25
M  V30 25 1 25 26
M  V30 26 2 26 27
M  V30 27 1 27 28
M  V30 28 2 28 29
M  V30 29 1 29 30
M  V30 30 1 26 31
M  V30 31 2 31 32
M  V30 32 1 32 33
M  V30 33 1 23 34
M  V30 34 2 34 35
M  V30 35 1 17 36
M  V30 36 1 11 37
M  V30 37 2 37 38
M  V30 38 2 3 39
M  V30 39 1 39 40
M  V30 40 2 40 41
M  V30 41 1 41 1
M  V30 42 1 7 2
M  V30 43 1 38 8
M  V30 44 1 36 14
M  V30 45 1 35 20
M  V30 46 2 33 24
M  V30 47 2 30 25
M  V30 48 1 1 42
M  V30 49 1 5 43
M  V30 50 1 6 44
M  V30 51 1 7 45
M  V30 52 1 9 46
M  V30 53 1 10 47
M  V30 54 1 15 48
M  V30 55 1 16 49
M  V30 56 1 21 50
M  V30 57 1 22 51
M  V30 58 1 27 52
M  V30 59 1 28 53
M  V30 60 1 30 54
M  V30 61 1 31 55
M  V30 62 1 32 56
M  V30 63 1 33 57
M  V30 64 1 34 58
M  V30 65 1 35 59
M  V30 66 1 37 60
M  V30 67 1 38 61
M  V30 68 1 39 62
M  V30 69 1 41 63
M  V30 END BOND
M  V30 END CTAB
M  END

$$$$
