
     RDKit          3D

  0  0  0  0  0  0  0  0  0  0999 V3000
M  V30 BEGIN CTAB
M  V30 COUNTS 63 69 0 0 0
M  V30 BEGIN ATOM
M  V30 1 C 12.4148 -1.4766 -1.0462 0
M  V30 2 C 11.5312 -0.6695 -0.3167 0
M  V30 3 C 10.1672 -0.5912 -0.7000 0
M  V30 4 C 9.2802 0.2329 0.0430 0
M  V30 5 C 9.7758 0.9751 1.1279 0
M  V30 6 C 11.1190 0.8908 1.4948 0
M  V30 7 C 11.9935 0.0702 0.7811 0
M  V30 8 C 7.8353 0.3414 -0.2724 0
M  V30 9 C 7.2738 1.5903 -0.5905 0
M  V30 10 C 5.9036 1.7050 -0.8461 0
M  V30 11 C 5.0813 0.5739 -0.7788 0
M  V30 12 C 3.6705 0.6967 -1.0320 0
M  V30 13 C 2.4878 0.8068 -1.2368 0
M  V30 14 C 1.0769 0.9427 -1.4672 0
M  V30 15 C 0.4879 1.3963 -2.6390 0
M  V30 16 C -0.9119 1.4238 -2.5720 0
M  V30 17 C -1.4026 0.9766 -1.3518 0
M  V30 18 C -2.7921 0.8668 -1.0012 0
M  V30 19 C -3.9565 0.7579 -0.7055 0
M  V30 20 C -5.3415 0.6089 -0.3469 0
M  V30 21 C -5.9938 1.6169 0.3728 0
M  V30 22 C -7.3283 1.4539 0.7516 0
M  V30 23 C -8.0221 0.2814 0.4168 0
M  V30 24 C -9.4333 0.1082 0.8347 0
M  V30 25 C -9.8511 -0.9418 1.6960 0
M  V30 26 C -11.2261 -1.0634 2.0330 0
M  V30 27 C -11.6486 -2.0987 2.8794 0
M  V30 28 C -10.7096 -2.9907 3.3926 0
M  V30 29 N -9.3927 -2.8485 3.0845 0
M  V30 30 C -8.9444 -1.8598 2.2667 0
M  V30 31 C -12.1556 -0.1407 1.5300 0
M  V30 32 C -11.7329 0.9022 0.7061 0
M  V30 33 C -10.3846 1.0276 0.3615 0
M  V30 34 C -7.3722 -0.7130 -0.3310 0
M  V30 35 C -6.0347 -0.5548 -0.7035 0
M  V30 36 S -0.1184 0.5571 -0.3485 0
M  V30 37 C 5.6327 -0.6707 -0.4483 0
M  V30 38 C 7.0029 -0.7860 -0.1923 0
M  V30 39 C 9.7535 -1.3178 -1.8344 0
M  V30 40 N 10.6391 -2.0904 -2.5182 0
M  V30 41 C 11.9422 -2.1881 -2.1489 0
M  V30 42 H 13.4633 -1.5479 -0.7723 0
M  V30 43 H 9.1129 1.6119 1.7036 0
M  V30 44 H 11.4822 1.4631 2.3389 0
M  V30 45 H 13.0339 0.0208 1.0803 0
M  V30 46 H 7.9015 2.4720 -0.6414 0
M  V30 47 H 5.4851 2.6743 -1.0899 0
M  V30 48 H 1.0447 1.6945 -3.5149 0
M  V30 49 H -1.5410 1.7471 -3.3925 0
M  V30 50 H -5.4693 2.5242 0.6485 0
M  V30 51 H -7.8179 2.2358 1.3165 0
M  V30 52 H -12.6921 -2.2144 3.1450 0
M  V30 53 H -11.0252 -3.7965 4.0429 0
M  V30 54 H -7.8783 -1.7897 2.0858 0
M  V30 55 H -13.2092 -0.2230 1.7796 0
M  V30 56 H -12.4565 1.6130 0.3230 0
M  V30 57 H -10.0849 1.8363 -0.2972 0
M  V30 58 H -7.8990 -1.6138 -0.6154 0
M  V30 59 H -5.5391 -1.3402 -1.2628 0
M  V30 60 H 5.0041 -1.5511 -0.3851 0
M  V30 61 H 7.4170 -1.7509 0.0744 0
M  V30 62 H 8.7356 -1.2677 -2.1929 0
M  V30 63 H 12.6159 -2.8134 -2.7185 0
M  V30 END ATOM
M  V30 BEGIN BOND
M  V30 1 2 1 2
M  V30 2 1 2 3
M  V30 3 1 3 4
M  V30 4 2 4 5
M  V30 5 1 5 6
M  V30 6 2 6 7
M  V30 7 1 4 8
M  V30 8 2 8 9
M  V30 9 1 9 10
M  V30 10 2 10 11
M  V30 11 1 11 12
M  V30 12 3 12 13
M  V30 13 1 13 14
M  V30 14 2 14 15
M  V30 15 1 15 16
M  V30 16 2 16 17
M  V30 17 1 17 18
M  V30 18 3 18 19
M  V30 19 1 19 20
M  V30 20 2 20 21
M  V30 21 1 21 22
M  V30 22 2 22 23
M  V30 23 1 23 24
M  V30 24 1 24 25
M  V30 25 1 25 26
M  V30 26 2 26 27
M  V30 27 1 27 28
M  V30 28 2 28 29
M  V30 29 1 29 30
M  V30 30 1 26 31
M  V30 31 2 31 32
M  V30 32 1 32 33
M  V30 33 1 23 34
M  V30 34 2 34 35
M  V30 35 1 17 36
M  V30 36 1 11 37
M  V30 37 2 37 38
M  V30 38 2 3 39
M  V30 39 1 39 40
M  V30 40 2 40 41
M  V30 41 1 41 1
M  V30 42 1 7 2
M  V30 43 1 38 8
M  V30 44 1 36 14
M  V30 45 1 35 20
M  V30 46 2 33 24
M  V30 47 2 30 25
M  V30 48 1 1 42
M  V30 49 1 5 43
M  V30 50 1 6 44
M  V30 51 1 7 45
M  V30 52 1 9 46
M  V30 53 1 10 47
M  V30 54 1 15 48
M  V30 55 1 16 49
M  V30 56 1 21 50
M  V30 57 1 22 51
M  V30 58 1 27 52
M  V30 59 1 28 53
M  V30 60 1 30 54
M  V30 61 1 31 55
M  V30 62 1 32 56
M  V30 63 1 33 57
M  V30 64 1 34 58
M  V30 65 1 35 59
M  V30 66 1 37 60
M  V30 67 1 38 61
M  V30 68 1 39 62
M  V30 69 1 41 63
M  V30 END BOND
M  V30 END CTAB
M  END

$$$$
