
     RDKit          3D

  0  0  0  0  0  0  0  0  0  0999 V3000
M  V30 BEGIN CTAB
M  V30 COUNTS 63 69 0 0 0
M  V30 BEGIN ATOM
M  V30 1 C -12.1821 -0.2118 -3.0160 0
M  V30 2 C -11.4573 0.4369 -2.0072 0
M  V30 3 C -10.1074 0.0747 -1.7625 0
M  V30 4 C -9.3821 0.7395 -0.7382 0
M  V30 5 C -10.0261 1.7245 0.0296 0
M  V30 6 C -11.3549 2.0670 -0.2173 0
M  V30 7 C -12.0678 1.4320 -1.2325 0
M  V30 8 C -7.9607 0.4437 -0.4416 0
M  V30 9 C -6.9684 0.6511 -1.4148 0
M  V30 10 C -5.6230 0.4209 -1.1115 0
M  V30 11 C -5.2573 -0.0089 0.1696 0
M  V30 12 C -3.8739 -0.2345 0.4948 0
M  V30 13 C -2.7211 -0.4222 0.7927 0
M  V30 14 C -1.3563 -0.6427 1.1788 0
M  V30 15 C -0.9482 -1.2222 2.3717 0
M  V30 16 C 0.4432 -1.2685 2.5075 0
M  V30 17 C 1.1117 -0.7244 1.4198 0
M  V30 18 C 2.5369 -0.5967 1.3058 0
M  V30 19 C 3.7346 -0.4837 1.2338 0
M  V30 20 C 5.1652 -0.3409 1.1754 0
M  V30 21 C 5.9551 -1.3614 0.6311 0
M  V30 22 C 7.3476 -1.2334 0.6084 0
M  V30 23 C 7.9606 -0.0789 1.1209 0
M  V30 24 C 9.4353 0.0456 1.1388 0
M  V30 25 C 10.2156 0.0727 -0.0467 0
M  V30 26 C 11.6270 0.1813 0.0503 0
M  V30 27 C 12.4055 0.2093 -1.1147 0
M  V30 28 C 11.7811 0.1398 -2.3591 0
M  V30 29 N 10.4285 0.0508 -2.4399 0
M  V30 30 C 9.6408 0.0200 -1.3331 0
M  V30 31 C 12.2383 0.2680 1.3081 0
M  V30 32 C 11.4640 0.2584 2.4668 0
M  V30 33 C 10.0759 0.1544 2.3846 0
M  V30 34 C 7.1637 0.9385 1.6694 0
M  V30 35 C 5.7727 0.8098 1.6920 0
M  V30 36 S -0.0071 -0.1798 0.2883 0
M  V30 37 C -6.2416 -0.2092 1.1449 0
M  V30 38 C -7.5859 0.0184 0.8422 0
M  V30 39 C -9.5495 -0.9638 -2.5357 0
M  V30 40 N -10.2846 -1.5704 -3.5051 0
M  V30 41 C -11.5694 -1.2154 -3.7630 0
M  V30 42 H -13.2130 0.0514 -3.2215 0
M  V30 43 H -9.4907 2.2405 0.8178 0
M  V30 44 H -11.8340 2.8319 0.3802 0
M  V30 45 H -13.0994 1.7128 -1.4072 0
M  V30 46 H -7.2373 0.9974 -2.4047 0
M  V30 47 H -4.8684 0.5856 -1.8714 0
M  V30 48 H -1.6322 -1.5923 3.1248 0
M  V30 49 H 0.9423 -1.6772 3.3764 0
M  V30 50 H 5.4958 -2.2587 0.2349 0
M  V30 51 H 7.9484 -2.0369 0.2010 0
M  V30 52 H 13.4851 0.2862 -1.0630 0
M  V30 53 H 12.3731 0.1605 -3.2644 0
M  V30 54 H 8.5697 -0.0348 -1.4702 0
M  V30 55 H 13.3150 0.3506 1.3949 0
M  V30 56 H 11.9427 0.3301 3.4344 0
M  V30 57 H 9.4961 0.1394 3.2994 0
M  V30 58 H 7.6205 1.8290 2.0813 0
M  V30 59 H 5.1720 1.6021 2.1218 0
M  V30 60 H -5.9685 -0.5361 2.1405 0
M  V30 61 H -8.3353 -0.1362 1.6087 0
M  V30 62 H -8.5395 -1.3103 -2.3697 0
M  V30 63 H -12.1208 -1.7236 -4.5432 0
M  V30 END ATOM
M  V30 BEGIN BOND
M  V30 1 2 1 2
M  V30 2 1 2 3
M  V30 3 1 3 4
M  V30 4 2 4 5
M  V30 5 1 5 6
M  V30 6 2 6 7
M  V30 7 1 4 8
M  V30 8 2 8 9
M  V30 9 1 9 10
M  V30 10 2 10 11
M  V30 11 1 11 12
M  V30 12 3 12 13
M  V30 13 1 13 14
M  V30 14 2 14 15
M  V30 15 1 15 16
M  V30 16 2 16 17
M  V30 17 1 17 18
M  V30 18 3 18 19
M  V30 19 1 19 20
M  V30 20 2 20 21
M  V30 21 1 21 22
M  V30 22 2 22 23
M  V30 23 1 23 24
M  V30 24 1 24 25
M  V30 25 1 25 26
M  V30 26 2 26 27
M  V30 27 1 27 28
M  V30 28 2 28 29
M  V30 29 1 29 30
M  V30 30 1 26 31
M  V30 31 2 31 32
M  V30 32 1 32 33
M  V30 33 1 23 34
M  V30 34 2 34 35
M  V30 35 1 17 36
M  V30 36 1 11 37
M  V30 37 2 37 38
M  V30 38 2 3 39
M  V30 39 1 39 40
M  V30 40 2 40 41
M  V30 41 1 41 1
M  V30 42 1 7 2
M  V30 43 1 38 8
M  V30 44 1 36 14
M  V30 45 1 35 20
M  V30 46 2 33 24
M  V30 47 2 30 25
M  V30 48 1 1 42
M  V30 49 1 5 43
M  V30 50 1 6 44
M  V30 51 1 7 45
M  V30 52 1 9 46
M  V30 53 1 10 47
M  V30 54 1 15 48
M  V30 55 1 16 49
M  V30 56 1 21 50
M  V30 57 1 22 51
M  V30 58 1 27 52
M  V30 59 1 28 53
M  V30 60 1 30 54
M  V30 61 1 31 55
M  V30 62 1 32 56
M  V30 63 1 33 57
M  V30 64 1 34 58
M  V30 65 1 35 59
M  V30 66 1 37 60
M  V30 67 1 38 61
M  V30 68 1 39 62
M  V30 69 1 41 63
M  V30 END BOND
M  V30 END CTAB
M  END

$$$$
