
     RDKit          3D

  0  0  0  0  0  0  0  0  0  0999 V3000
M  V30 BEGIN CTAB
M  V30 COUNTS 63 69 0 0 0
M  V30 BEGIN ATOM
M  V30 1 C 12.7638 0.3001 -0.7304 0
M  V30 2 C 11.7384 -0.4498 -0.1394 0
M  V30 3 C 10.3838 -0.1082 -0.3845 0
M  V30 4 C 9.3517 -0.8712 0.2217 0
M  V30 5 C 9.6921 -1.9687 1.0292 0
M  V30 6 C 11.0282 -2.2980 1.2588 0
M  V30 7 C 12.0481 -1.5409 0.6841 0
M  V30 8 C 7.9176 -0.5479 0.0484 0
M  V30 9 C 7.4014 0.6699 0.5205 0
M  V30 10 C 6.0430 0.9649 0.3705 0
M  V30 11 C 5.1877 0.0416 -0.2440 0
M  V30 12 C 3.7907 0.3476 -0.4035 0
M  V30 13 C 2.6209 0.6046 -0.5399 0
M  V30 14 C 1.2286 0.9119 -0.7057 0
M  V30 15 C 0.7124 1.8608 -1.5779 0
M  V30 16 C -0.6841 1.9410 -1.5320 0
M  V30 17 C -1.2469 1.0544 -0.6242 0
M  V30 18 C -2.6516 0.9054 -0.3685 0
M  V30 19 C -3.8319 0.7804 -0.1579 0
M  V30 20 C -5.2416 0.6309 0.0891 0
M  V30 21 C -5.7892 -0.6438 0.2798 0
M  V30 22 C -7.1600 -0.7903 0.5125 0
M  V30 23 C -7.9971 0.3370 0.5459 0
M  V30 24 C -9.4464 0.1866 0.8084 0
M  V30 25 C -10.3071 -0.5361 -0.0586 0
M  V30 26 C -11.6762 -0.6821 0.2816 0
M  V30 27 C -12.5318 -1.3989 -0.5653 0
M  V30 28 C -12.0289 -1.9495 -1.7430 0
M  V30 29 N -10.7217 -1.7840 -2.0696 0
M  V30 30 C -9.8610 -1.0988 -1.2718 0
M  V30 31 C -12.1720 -0.1017 1.4572 0
M  V30 32 C -11.3251 0.6265 2.2914 0
M  V30 33 C -9.9753 0.7718 1.9706 0
M  V30 34 C -7.4408 1.6140 0.3694 0
M  V30 35 C -6.0696 1.7596 0.1374 0
M  V30 36 S -0.0299 0.1679 0.1243 0
M  V30 37 C 5.6951 -1.1804 -0.7031 0
M  V30 38 C 7.0534 -1.4763 -0.5532 0
M  V30 39 C 10.1178 0.9707 -1.2523 0
M  V30 40 N 11.1392 1.6724 -1.8103 0
M  V30 41 C 12.4394 1.3677 -1.5661 0
M  V30 42 H 13.8053 0.0597 -0.5524 0
M  V30 43 H 8.9171 -2.5638 1.4974 0
M  V30 44 H 11.2742 -3.1420 1.8901 0
M  V30 45 H 13.0792 -1.8128 0.8772 0
M  V30 46 H 8.0513 1.3883 1.0050 0
M  V30 47 H 5.6598 1.9107 0.7346 0
M  V30 48 H 1.3223 2.4745 -2.2280 0
M  V30 49 H -1.2614 2.6226 -2.1433 0
M  V30 50 H -5.1569 -1.5231 0.2498 0
M  V30 51 H -7.5700 -1.7808 0.6669 0
M  V30 52 H -13.5797 -1.5275 -0.3215 0
M  V30 53 H -12.6819 -2.5033 -2.4043 0
M  V30 54 H -8.8375 -0.9884 -1.6010 0
M  V30 55 H -13.2165 -0.2050 1.7267 0
M  V30 56 H -11.7153 1.0764 3.1952 0
M  V30 57 H -9.3336 1.3300 2.6420 0
M  V30 58 H -8.0707 2.4947 0.4032 0
M  V30 59 H -5.6557 2.7506 -0.0050 0
M  V30 60 H 5.0414 -1.9033 -1.1765 0
M  V30 61 H 7.4337 -2.4248 -0.9128 0
M  V30 62 H 9.1058 1.2551 -1.5033 0
M  V30 63 H 13.2240 1.9512 -2.0291 0
M  V30 END ATOM
M  V30 BEGIN BOND
M  V30 1 2 1 2
M  V30 2 1 2 3
M  V30 3 1 3 4
M  V30 4 2 4 5
M  V30 5 1 5 6
M  V30 6 2 6 7
M  V30 7 1 4 8
M  V30 8 2 8 9
M  V30 9 1 9 10
M  V30 10 2 10 11
M  V30 11 1 11 12
M  V30 12 3 12 13
M  V30 13 1 13 14
M  V30 14 2 14 15
M  V30 15 1 15 16
M  V30 16 2 16 17
M  V30 17 1 17 18
M  V30 18 3 18 19
M  V30 19 1 19 20
M  V30 20 2 20 21
M  V30 21 1 21 22
M  V30 22 2 22 23
M  V30 23 1 23 24
M  V30 24 1 24 25
M  V30 25 1 25 26
M  V30 26 2 26 27
M  V30 27 1 27 28
M  V30 28 2 28 29
M  V30 29 1 29 30
M  V30 30 1 26 31
M  V30 31 2 31 32
M  V30 32 1 32 33
M  V30 33 1 23 34
M  V30 34 2 34 35
M  V30 35 1 17 36
M  V30 36 1 11 37
M  V30 37 2 37 38
M  V30 38 2 3 39
M  V30 39 1 39 40
M  V30 40 2 40 41
M  V30 41 1 41 1
M  V30 42 1 7 2
M  V30 43 1 38 8
M  V30 44 1 36 14
M  V30 45 1 35 20
M  V30 46 2 33 24
M  V30 47 2 30 25
M  V30 48 1 1 42
M  V30 49 1 5 43
M  V30 50 1 6 44
M  V30 51 1 7 45
M  V30 52 1 9 46
M  V30 53 1 10 47
M  V30 54 1 15 48
M  V30 55 1 16 49
M  V30 56 1 21 50
M  V30 57 1 22 51
M  V30 58 1 27 52
M  V30 59 1 28 53
M  V30 60 1 30 54
M  V30 61 1 31 55
M  V30 62 1 32 56
M  V30 63 1 33 57
M  V30 64 1 34 58
M  V30 65 1 35 59
M  V30 66 1 37 60
M  V30 67 1 38 61
M  V30 68 1 39 62
M  V30 69 1 41 63
M  V30 END BOND
M  V30 END CTAB
M  END

$$$$
