
     RDKit          3D

  0  0  0  0  0  0  0  0  0  0999 V3000
M  V30 BEGIN CTAB
M  V30 COUNTS 63 69 0 0 0
M  V30 BEGIN ATOM
M  V30 1 C -12.7214 -0.6332 0.1160 0
M  V30 2 C -11.7276 0.3542 0.1424 0
M  V30 3 C -10.3621 -0.0216 0.2199 0
M  V30 4 C -9.3626 0.9857 0.2519 0
M  V30 5 C -9.7443 2.3352 0.1738 0
M  V30 6 C -11.0904 2.6922 0.0919 0
M  V30 7 C -12.0793 1.7097 0.0829 0
M  V30 8 C -7.9215 0.6724 0.3834 0
M  V30 9 C -7.0218 1.0537 -0.6246 0
M  V30 10 C -5.6572 0.7790 -0.4923 0
M  V30 11 C -5.1793 0.1292 0.6527 0
M  V30 12 C -3.7746 -0.1517 0.7891 0
M  V30 13 C -2.5978 -0.3862 0.9033 0
M  V30 14 C -1.1960 -0.6644 1.0393 0
M  V30 15 C -0.6449 -1.6527 1.8439 0
M  V30 16 C 0.7528 -1.6920 1.7789 0
M  V30 17 C 1.2814 -0.7340 0.9240 0
M  V30 18 C 2.6778 -0.5350 0.6574 0
M  V30 19 C 3.8502 -0.3670 0.4334 0
M  V30 20 C 5.2497 -0.1656 0.1659 0
M  V30 21 C 5.6559 0.8202 -0.7422 0
M  V30 22 C 7.0157 1.0172 -1.0016 0
M  V30 23 C 7.9806 0.2233 -0.3614 0
M  V30 24 C 9.4208 0.4499 -0.6195 0
M  V30 25 C 10.2634 -0.5504 -1.1712 0
M  V30 26 C 11.6449 -0.2798 -1.3443 0
M  V30 27 C 12.4853 -1.2632 -1.8828 0
M  V30 28 C 11.9492 -2.4944 -2.2569 0
M  V30 29 N 10.6214 -2.7343 -2.1074 0
M  V30 30 C 9.7761 -1.8070 -1.5851 0
M  V30 31 C 12.1643 0.9718 -0.9861 0
M  V30 32 C 11.3258 1.9567 -0.4663 0
M  V30 33 C 9.9665 1.7004 -0.2857 0
M  V30 34 C 7.5687 -0.7547 0.5587 0
M  V30 35 C 6.2088 -0.9513 0.8170 0
M  V30 36 S 0.0327 0.1643 0.2455 0
M  V30 37 C -6.0709 -0.2415 1.6670 0
M  V30 38 C -7.4355 0.0330 1.5357 0
M  V30 39 C -10.0519 -1.3968 0.2346 0
M  V30 40 N -11.0435 -2.3258 0.2035 0
M  V30 41 C -12.3545 -1.9775 0.1517 0
M  V30 42 H -13.7707 -0.3680 0.0627 0
M  V30 43 H -8.9947 3.1173 0.1939 0
M  V30 44 H -11.3685 3.7370 0.0410 0
M  V30 45 H -13.1190 2.0089 0.0217 0
M  V30 46 H -7.3786 1.5575 -1.5147 0
M  V30 47 H -4.9754 1.0739 -1.2810 0
M  V30 48 H -1.2311 -2.3237 2.4585 0
M  V30 49 H 1.3549 -2.3965 2.3380 0
M  V30 50 H 4.9223 1.4365 -1.2479 0
M  V30 51 H 7.3169 1.7834 -1.7055 0
M  V30 52 H 13.5446 -1.0796 -2.0181 0
M  V30 53 H 12.5894 -3.2592 -2.6759 0
M  V30 54 H 8.7272 -2.0565 -1.5112 0
M  V30 55 H 13.2177 1.1908 -1.1155 0
M  V30 56 H 11.7324 2.9229 -0.1962 0
M  V30 57 H 9.3377 2.4767 0.1338 0
M  V30 58 H 8.3014 -1.3618 1.0764 0
M  V30 59 H 5.9057 -1.7125 1.5259 0
M  V30 60 H -5.7110 -0.7390 2.5597 0
M  V30 61 H -8.1136 -0.2498 2.3317 0
M  V30 62 H -9.0284 -1.7430 0.2570 0
M  V30 63 H -13.1143 -2.7473 0.1295 0
M  V30 END ATOM
M  V30 BEGIN BOND
M  V30 1 2 1 2
M  V30 2 1 2 3
M  V30 3 1 3 4
M  V30 4 2 4 5
M  V30 5 1 5 6
M  V30 6 2 6 7
M  V30 7 1 4 8
M  V30 8 2 8 9
M  V30 9 1 9 10
M  V30 10 2 10 11
M  V30 11 1 11 12
M  V30 12 3 12 13
M  V30 13 1 13 14
M  V30 14 2 14 15
M  V30 15 1 15 16
M  V30 16 2 16 17
M  V30 17 1 17 18
M  V30 18 3 18 19
M  V30 19 1 19 20
M  V30 20 2 20 21
M  V30 21 1 21 22
M  V30 22 2 22 23
M  V30 23 1 23 24
M  V30 24 1 24 25
M  V30 25 1 25 26
M  V30 26 2 26 27
M  V30 27 1 27 28
M  V30 28 2 28 29
M  V30 29 1 29 30
M  V30 30 1 26 31
M  V30 31 2 31 32
M  V30 32 1 32 33
M  V30 33 1 23 34
M  V30 34 2 34 35
M  V30 35 1 17 36
M  V30 36 1 11 37
M  V30 37 2 37 38
M  V30 38 2 3 39
M  V30 39 1 39 40
M  V30 40 2 40 41
M  V30 41 1 41 1
M  V30 42 1 7 2
M  V30 43 1 38 8
M  V30 44 1 36 14
M  V30 45 1 35 20
M  V30 46 2 33 24
M  V30 47 2 30 25
M  V30 48 1 1 42
M  V30 49 1 5 43
M  V30 50 1 6 44
M  V30 51 1 7 45
M  V30 52 1 9 46
M  V30 53 1 10 47
M  V30 54 1 15 48
M  V30 55 1 16 49
M  V30 56 1 21 50
M  V30 57 1 22 51
M  V30 58 1 27 52
M  V30 59 1 28 53
M  V30 60 1 30 54
M  V30 61 1 31 55
M  V30 62 1 32 56
M  V30 63 1 33 57
M  V30 64 1 34 58
M  V30 65 1 35 59
M  V30 66 1 37 60
M  V30 67 1 38 61
M  V30 68 1 39 62
M  V30 69 1 41 63
M  V30 END BOND
M  V30 END CTAB
M  END

$$$$
