
     RDKit          3D

  0  0  0  0  0  0  0  0  0  0999 V3000
M  V30 BEGIN CTAB
M  V30 COUNTS 63 69 0 0 0
M  V30 BEGIN ATOM
M  V30 1 C 12.7880 0.0404 0.1784 0
M  V30 2 C 11.7276 0.9467 0.3101 0
M  V30 3 C 10.3924 0.4696 0.3447 0
M  V30 4 C 9.3242 1.3956 0.4730 0
M  V30 5 C 9.6129 2.7649 0.5955 0
M  V30 6 C 10.9306 3.2215 0.5658 0
M  V30 7 C 11.9841 2.3206 0.4172 0
M  V30 8 C 7.9039 0.9775 0.4655 0
M  V30 9 C 7.3495 0.3652 -0.6704 0
M  V30 10 C 6.0021 -0.0078 -0.6831 0
M  V30 11 C 5.1952 0.2362 0.4352 0
M  V30 12 C 3.8081 -0.1464 0.4203 0
M  V30 13 C 2.6462 -0.4669 0.4053 0
M  V30 14 C 1.2623 -0.8480 0.3844 0
M  V30 15 C 0.7718 -2.1179 0.6572 0
M  V30 16 C -0.6218 -2.1984 0.5507 0
M  V30 17 C -1.2075 -0.9907 0.1956 0
M  V30 18 C -2.6130 -0.7708 0.0032 0
M  V30 19 C -3.7925 -0.5848 -0.1614 0
M  V30 20 C -5.1999 -0.3609 -0.3611 0
M  V30 21 C -5.6714 0.0681 -1.6080 0
M  V30 22 C -7.0382 0.2889 -1.8028 0
M  V30 23 C -7.9465 0.0737 -0.7541 0
M  V30 24 C -9.3900 0.3342 -0.9558 0
M  V30 25 C -10.3741 -0.6802 -0.8239 0
M  V30 26 C -11.7434 -0.3475 -0.9860 0
M  V30 27 C -12.7222 -1.3413 -0.8532 0
M  V30 28 C -12.3366 -2.6519 -0.5762 0
M  V30 29 N -11.0216 -2.9629 -0.4445 0
M  V30 30 C -10.0443 -2.0258 -0.5628 0
M  V30 31 C -12.1138 0.9702 -1.2880 0
M  V30 32 C -11.1395 1.9561 -1.4378 0
M  V30 33 C -9.7900 1.6424 -1.2754 0
M  V30 34 C -7.4673 -0.3442 0.4983 0
M  V30 35 C -6.1003 -0.5652 0.6920 0
M  V30 36 S -0.0148 0.1794 0.0103 0
M  V30 37 C 5.7402 0.8582 1.5655 0
M  V30 38 C 7.0876 1.2318 1.5790 0
M  V30 39 C 10.1831 -0.9229 0.2764 0
M  V30 40 N 11.2374 -1.7716 0.1528 0
M  V30 41 C 12.5180 -1.3247 0.0966 0
M  V30 42 H 13.8152 0.3838 0.1446 0
M  V30 43 H 8.8103 3.4856 0.6972 0
M  V30 44 H 11.1357 4.2807 0.6529 0
M  V30 45 H 13.0000 2.6968 0.3936 0
M  V30 46 H 7.9607 0.1797 -1.5453 0
M  V30 47 H 5.5891 -0.4826 -1.5651 0
M  V30 48 H 1.3979 -2.9600 0.9221 0
M  V30 49 H -1.1801 -3.1088 0.7253 0
M  V30 50 H -4.9829 0.2334 -2.4281 0
M  V30 51 H -7.3899 0.6219 -2.7716 0
M  V30 52 H -13.7742 -1.1080 -0.9680 0
M  V30 53 H -13.0846 -3.4267 -0.4739 0
M  V30 54 H -9.0163 -2.3449 -0.4649 0
M  V30 55 H -13.1565 1.2360 -1.4158 0
M  V30 56 H -11.4319 2.9708 -1.6758 0
M  V30 57 H -9.0521 2.4286 -1.3831 0
M  V30 58 H -8.1524 -0.4950 1.3236 0
M  V30 59 H -5.7453 -0.8908 1.6624 0
M  V30 60 H 5.1239 1.0553 2.4345 0
M  V30 61 H 7.4967 1.7131 2.4589 0
M  V30 62 H 9.1905 -1.3466 0.3339 0
M  V30 63 H 13.3300 -2.0325 -0.0032 0
M  V30 END ATOM
M  V30 BEGIN BOND
M  V30 1 2 1 2
M  V30 2 1 2 3
M  V30 3 1 3 4
M  V30 4 2 4 5
M  V30 5 1 5 6
M  V30 6 2 6 7
M  V30 7 1 4 8
M  V30 8 2 8 9
M  V30 9 1 9 10
M  V30 10 2 10 11
M  V30 11 1 11 12
M  V30 12 3 12 13
M  V30 13 1 13 14
M  V30 14 2 14 15
M  V30 15 1 15 16
M  V30 16 2 16 17
M  V30 17 1 17 18
M  V30 18 3 18 19
M  V30 19 1 19 20
M  V30 20 2 20 21
M  V30 21 1 21 22
M  V30 22 2 22 23
M  V30 23 1 23 24
M  V30 24 1 24 25
M  V30 25 1 25 26
M  V30 26 2 26 27
M  V30 27 1 27 28
M  V30 28 2 28 29
M  V30 29 1 29 30
M  V30 30 1 26 31
M  V30 31 2 31 32
M  V30 32 1 32 33
M  V30 33 1 23 34
M  V30 34 2 34 35
M  V30 35 1 17 36
M  V30 36 1 11 37
M  V30 37 2 37 38
M  V30 38 2 3 39
M  V30 39 1 39 40
M  V30 40 2 40 41
M  V30 41 1 41 1
M  V30 42 1 7 2
M  V30 43 1 38 8
M  V30 44 1 36 14
M  V30 45 1 35 20
M  V30 46 2 33 24
M  V30 47 2 30 25
M  V30 48 1 1 42
M  V30 49 1 5 43
M  V30 50 1 6 44
M  V30 51 1 7 45
M  V30 52 1 9 46
M  V30 53 1 10 47
M  V30 54 1 15 48
M  V30 55 1 16 49
M  V30 56 1 21 50
M  V30 57 1 22 51
M  V30 58 1 27 52
M  V30 59 1 28 53
M  V30 60 1 30 54
M  V30 61 1 31 55
M  V30 62 1 32 56
M  V30 63 1 33 57
M  V30 64 1 34 58
M  V30 65 1 35 59
M  V30 66 1 37 60
M  V30 67 1 38 61
M  V30 68 1 39 62
M  V30 69 1 41 63
M  V30 END BOND
M  V30 END CTAB
M  END

$$$$
