
     RDKit          3D

  0  0  0  0  0  0  0  0  0  0999 V3000
M  V30 BEGIN CTAB
M  V30 COUNTS 63 69 0 0 0
M  V30 BEGIN ATOM
M  V30 1 C -12.6467 -1.1056 0.1834 0
M  V30 2 C -11.5696 -1.2557 -0.7001 0
M  V30 3 C -10.2758 -0.8202 -0.3149 0
M  V30 4 C -9.1895 -0.9817 -1.2142 0
M  V30 5 C -9.4238 -1.5403 -2.4816 0
M  V30 6 C -10.7021 -1.9591 -2.8512 0
M  V30 7 C -11.7698 -1.8253 -1.9650 0
M  V30 8 C -7.8029 -0.5989 -0.8635 0
M  V30 9 C -7.1353 -1.2376 0.1945 0
M  V30 10 C -5.8186 -0.8890 0.5100 0
M  V30 11 C -5.1546 0.0934 -0.2353 0
M  V30 12 C -3.7992 0.4517 0.0894 0
M  V30 13 C -2.6639 0.7522 0.3609 0
M  V30 14 C -1.3118 1.1108 0.6833 0
M  V30 15 C -0.9326 2.1261 1.5511 0
M  V30 16 C 0.4566 2.2515 1.6695 0
M  V30 17 C 1.1504 1.3330 0.8932 0
M  V30 18 C 2.5794 1.2261 0.8070 0
M  V30 19 C 3.7792 1.1373 0.7332 0
M  V30 20 C 5.2116 1.0325 0.6434 0
M  V30 21 C 5.9310 1.9239 -0.1625 0
M  V30 22 C 7.3227 1.8221 -0.2515 0
M  V30 23 C 8.0059 0.8216 0.4578 0
M  V30 24 C 9.4814 0.7292 0.3783 0
M  V30 25 C 10.1475 -0.4187 -0.1253 0
M  V30 26 C 11.5654 -0.4567 -0.1272 0
M  V30 27 C 12.2313 -1.5878 -0.6178 0
M  V30 28 C 11.4903 -2.6597 -1.1130 0
M  V30 29 N 10.1339 -2.6032 -1.1264 0
M  V30 30 C 9.4530 -1.5253 -0.6555 0
M  V30 31 C 12.2967 0.6392 0.3515 0
M  V30 32 C 11.6350 1.7719 0.8236 0
M  V30 33 C 10.2408 1.8188 0.8359 0
M  V30 34 C 7.2813 -0.0610 1.2757 0
M  V30 35 C 5.8897 0.0413 1.3638 0
M  V30 36 S 0.0589 0.3643 0.0584 0
M  V30 37 C -5.8112 0.7232 -1.3000 0
M  V30 38 C -7.1282 0.3755 -1.6160 0
M  V30 39 C -10.1284 -0.2137 0.9492 0
M  V30 40 N -11.1979 -0.0817 1.7774 0
M  V30 41 C -12.4362 -0.5150 1.4284 0
M  V30 42 H -13.6420 -1.4367 -0.0884 0
M  V30 43 H -8.6070 -1.6682 -3.1819 0
M  V30 44 H -10.8645 -2.3954 -3.8284 0
M  V30 45 H -12.7540 -2.1599 -2.2712 0
M  V30 46 H -7.6346 -2.0058 0.7722 0
M  V30 47 H -5.3180 -1.3868 1.3318 0
M  V30 48 H -1.6342 2.7572 2.0811 0
M  V30 49 H 0.9357 2.9895 2.2998 0
M  V30 50 H 5.4166 2.6969 -0.7207 0
M  V30 51 H 7.8676 2.5177 -0.8782 0
M  V30 52 H 13.3137 -1.6399 -0.6233 0
M  V30 53 H 11.9951 -3.5364 -1.4962 0
M  V30 54 H 8.3737 -1.5381 -0.7127 0
M  V30 55 H 13.3803 0.6227 0.3533 0
M  V30 56 H 12.2057 2.6168 1.1874 0
M  V30 57 H 9.7492 2.7043 1.2209 0
M  V30 58 H 7.7954 -0.8258 1.8450 0
M  V30 59 H 5.3434 -0.6496 1.9949 0
M  V30 60 H -5.3052 1.4813 -1.8858 0
M  V30 61 H -7.6247 0.8698 -2.4422 0
M  V30 62 H -9.1744 0.1698 1.2821 0
M  V30 63 H -13.2617 -0.3926 2.1167 0
M  V30 END ATOM
M  V30 BEGIN BOND
M  V30 1 2 1 2
M  V30 2 1 2 3
M  V30 3 1 3 4
M  V30 4 2 4 5
M  V30 5 1 5 6
M  V30 6 2 6 7
M  V30 7 1 4 8
M  V30 8 2 8 9
M  V30 9 1 9 10
M  V30 10 2 10 11
M  V30 11 1 11 12
M  V30 12 3 12 13
M  V30 13 1 13 14
M  V30 14 2 14 15
M  V30 15 1 15 16
M  V30 16 2 16 17
M  V30 17 1 17 18
M  V30 18 3 18 19
M  V30 19 1 19 20
M  V30 20 2 20 21
M  V30 21 1 21 22
M  V30 22 2 22 23
M  V30 23 1 23 24
M  V30 24 1 24 25
M  V30 25 1 25 26
M  V30 26 2 26 27
M  V30 27 1 27 28
M  V30 28 2 28 29
M  V30 29 1 29 30
M  V30 30 1 26 31
M  V30 31 2 31 32
M  V30 32 1 32 33
M  V30 33 1 23 34
M  V30 34 2 34 35
M  V30 35 1 17 36
M  V30 36 1 11 37
M  V30 37 2 37 38
M  V30 38 2 3 39
M  V30 39 1 39 40
M  V30 40 2 40 41
M  V30 41 1 41 1
M  V30 42 1 7 2
M  V30 43 1 38 8
M  V30 44 1 36 14
M  V30 45 1 35 20
M  V30 46 2 33 24
M  V30 47 2 30 25
M  V30 48 1 1 42
M  V30 49 1 5 43
M  V30 50 1 6 44
M  V30 51 1 7 45
M  V30 52 1 9 46
M  V30 53 1 10 47
M  V30 54 1 15 48
M  V30 55 1 16 49
M  V30 56 1 21 50
M  V30 57 1 22 51
M  V30 58 1 27 52
M  V30 59 1 28 53
M  V30 60 1 30 54
M  V30 61 1 31 55
M  V30 62 1 32 56
M  V30 63 1 33 57
M  V30 64 1 34 58
M  V30 65 1 35 59
M  V30 66 1 37 60
M  V30 67 1 38 61
M  V30 68 1 39 62
M  V30 69 1 41 63
M  V30 END BOND
M  V30 END CTAB
M  END

$$$$
