
     RDKit          3D

  0  0  0  0  0  0  0  0  0  0999 V3000
M  V30 BEGIN CTAB
M  V30 COUNTS 63 69 0 0 0
M  V30 BEGIN ATOM
M  V30 1 C -11.8573 -1.0888 3.4226 0
M  V30 2 C -11.3404 -0.3710 2.3360 0
M  V30 3 C -9.9529 -0.4301 2.0477 0
M  V30 4 C -9.4392 0.2959 0.9414 0
M  V30 5 C -10.3109 1.0848 0.1727 0
M  V30 6 C -11.6728 1.1396 0.4698 0
M  V30 7 C -12.1889 0.4115 1.5407 0
M  V30 8 C -8.0126 0.2432 0.5486 0
M  V30 9 C -7.2381 1.4142 0.5452 0
M  V30 10 C -5.8965 1.3708 0.1536 0
M  V30 11 C -5.3206 0.1586 -0.2467 0
M  V30 12 C -3.9398 0.1147 -0.6498 0
M  V30 13 C -2.7833 0.0778 -0.9874 0
M  V30 14 C -1.4058 0.0339 -1.3892 0
M  V30 15 C -0.9491 -0.2374 -2.6720 0
M  V30 16 C 0.4471 -0.2133 -2.7699 0
M  V30 17 C 1.0688 0.0764 -1.5628 0
M  V30 18 C 2.4865 0.1682 -1.3569 0
M  V30 19 C 3.6769 0.2452 -1.1838 0
M  V30 20 C 5.0980 0.3368 -0.9769 0
M  V30 21 C 5.9729 0.2509 -2.0671 0
M  V30 22 C 7.3537 0.3403 -1.8665 0
M  V30 23 C 7.8718 0.5064 -0.5716 0
M  V30 24 C 9.3323 0.6242 -0.3584 0
M  V30 25 C 10.2370 -0.4207 -0.6818 0
M  V30 26 C 11.6288 -0.2191 -0.4971 0
M  V30 27 C 12.5296 -1.2428 -0.8189 0
M  V30 28 C 12.0449 -2.4562 -1.3045 0
M  V30 29 N 10.7092 -2.6458 -1.4561 0
M  V30 30 C 9.8055 -1.6753 -1.1586 0
M  V30 31 C 12.0989 0.9980 0.0150 0
M  V30 32 C 11.2021 2.0108 0.3517 0
M  V30 33 C 9.8314 1.8267 0.1689 0
M  V30 34 C 6.9898 0.6054 0.5162 0
M  V30 35 C 5.6091 0.5163 0.3145 0
M  V30 36 S -0.0953 0.3040 -0.3713 0
M  V30 37 C -6.0925 -1.0098 -0.2580 0
M  V30 38 C -7.4341 -0.9674 0.1331 0
M  V30 39 C -9.1300 -1.1951 2.8992 0
M  V30 40 N -9.6672 -1.8746 3.9465 0
M  V30 41 C -10.9968 -1.8432 4.2187 0
M  V30 42 H -12.9148 -1.0622 3.6572 0
M  V30 43 H -9.9357 1.6480 -0.6735 0
M  V30 44 H -12.3327 1.7457 -0.1374 0
M  V30 45 H -13.2503 0.4659 1.7523 0
M  V30 46 H -7.6719 2.3580 0.8521 0
M  V30 47 H -5.3094 2.2813 0.1619 0
M  V30 48 H -1.6008 -0.4460 -3.5106 0
M  V30 49 H 0.9822 -0.4016 -3.6917 0
M  V30 50 H 5.5878 0.1181 -3.0710 0
M  V30 51 H 8.0195 0.2823 -2.7189 0
M  V30 52 H 13.5971 -1.1079 -0.6910 0
M  V30 53 H 12.7322 -3.2536 -1.5536 0
M  V30 54 H 8.7557 -1.8991 -1.2850 0
M  V30 55 H 13.1598 1.1630 0.1622 0
M  V30 56 H 11.5714 2.9465 0.7513 0
M  V30 57 H 9.1552 2.6338 0.4242 0
M  V30 58 H 7.3724 0.7448 1.5199 0
M  V30 59 H 4.9408 0.5883 1.1643 0
M  V30 60 H -5.6585 -1.9516 -0.5717 0
M  V30 61 H -8.0234 -1.8760 0.1106 0
M  V30 62 H -8.0608 -1.2486 2.7503 0
M  V30 63 H -11.3858 -2.3990 5.0613 0
M  V30 END ATOM
M  V30 BEGIN BOND
M  V30 1 2 1 2
M  V30 2 1 2 3
M  V30 3 1 3 4
M  V30 4 2 4 5
M  V30 5 1 5 6
M  V30 6 2 6 7
M  V30 7 1 4 8
M  V30 8 2 8 9
M  V30 9 1 9 10
M  V30 10 2 10 11
M  V30 11 1 11 12
M  V30 12 3 12 13
M  V30 13 1 13 14
M  V30 14 2 14 15
M  V30 15 1 15 16
M  V30 16 2 16 17
M  V30 17 1 17 18
M  V30 18 3 18 19
M  V30 19 1 19 20
M  V30 20 2 20 21
M  V30 21 1 21 22
M  V30 22 2 22 23
M  V30 23 1 23 24
M  V30 24 1 24 25
M  V30 25 1 25 26
M  V30 26 2 26 27
M  V30 27 1 27 28
M  V30 28 2 28 29
M  V30 29 1 29 30
M  V30 30 1 26 31
M  V30 31 2 31 32
M  V30 32 1 32 33
M  V30 33 1 23 34
M  V30 34 2 34 35
M  V30 35 1 17 36
M  V30 36 1 11 37
M  V30 37 2 37 38
M  V30 38 2 3 39
M  V30 39 1 39 40
M  V30 40 2 40 41
M  V30 41 1 41 1
M  V30 42 1 7 2
M  V30 43 1 38 8
M  V30 44 1 36 14
M  V30 45 1 35 20
M  V30 46 2 33 24
M  V30 47 2 30 25
M  V30 48 1 1 42
M  V30 49 1 5 43
M  V30 50 1 6 44
M  V30 51 1 7 45
M  V30 52 1 9 46
M  V30 53 1 10 47
M  V30 54 1 15 48
M  V30 55 1 16 49
M  V30 56 1 21 50
M  V30 57 1 22 51
M  V30 58 1 27 52
M  V30 59 1 28 53
M  V30 60 1 30 54
M  V30 61 1 31 55
M  V30 62 1 32 56
M  V30 63 1 33 57
M  V30 64 1 34 58
M  V30 65 1 35 59
M  V30 66 1 37 60
M  V30 67 1 38 61
M  V30 68 1 39 62
M  V30 69 1 41 63
M  V30 END BOND
M  V30 END CTAB
M  END

$$$$
