
     RDKit          3D

  0  0  0  0  0  0  0  0  0  0999 V3000
M  V30 BEGIN CTAB
M  V30 COUNTS 63 69 0 0 0
M  V30 BEGIN ATOM
M  V30 1 C -11.3866 2.6698 -1.3880 0
M  V30 2 C -11.0242 1.3340 -1.1394 0
M  V30 3 C -9.7008 0.9143 -1.4163 0
M  V30 4 C -9.3305 -0.4204 -1.1377 0
M  V30 5 C -10.2865 -1.3236 -0.6393 0
M  V30 6 C -11.5956 -0.8983 -0.3748 0
M  V30 7 C -11.9573 0.4285 -0.6116 0
M  V30 8 C -7.9128 -0.8432 -1.1504 0
M  V30 9 C -7.3208 -1.3783 -2.3085 0
M  V30 10 C -5.9245 -1.5872 -2.3544 0
M  V30 11 C -5.1259 -1.2620 -1.2408 0
M  V30 12 C -3.6811 -1.2255 -1.2845 0
M  V30 13 C -2.4783 -1.1496 -1.1564 0
M  V30 14 C -1.0800 -1.0196 -0.7954 0
M  V30 15 C -0.3344 -2.0084 -0.1759 0
M  V30 16 C 0.6309 -1.5327 0.6992 0
M  V30 17 C 0.7872 -0.1654 0.7180 0
M  V30 18 C 2.1218 0.3560 0.9802 0
M  V30 19 C 3.3020 0.5384 1.1888 0
M  V30 20 C 4.7529 0.4761 1.3230 0
M  V30 21 C 5.3975 -0.4862 0.5356 0
M  V30 22 C 6.7838 -0.4825 0.4001 0
M  V30 23 C 7.5659 0.4960 1.0349 0
M  V30 24 C 9.0117 0.5768 0.7355 0
M  V30 25 C 9.9954 -0.0707 1.5299 0
M  V30 26 C 11.3418 -0.0841 1.0776 0
M  V30 27 C 12.3195 -0.7712 1.8218 0
M  V30 28 C 11.9513 -1.4136 3.0000 0
M  V30 29 N 10.6750 -1.3512 3.4416 0
M  V30 30 C 9.6985 -0.6972 2.7444 0
M  V30 31 C 11.6947 0.5625 -0.1144 0
M  V30 32 C 10.7189 1.2191 -0.8780 0
M  V30 33 C 9.3781 1.2257 -0.4552 0
M  V30 34 C 6.9429 1.3600 1.9699 0
M  V30 35 C 5.5290 1.3970 2.0441 0
M  V30 36 S -0.3901 0.4248 -0.2996 0
M  V30 37 C -5.7412 -0.8631 -0.0528 0
M  V30 38 C -7.1234 -0.6449 -0.0063 0
M  V30 39 C -8.7871 1.8587 -1.9259 0
M  V30 40 N -9.1754 3.1446 -2.1460 0
M  V30 41 C -10.4393 3.5620 -1.8903 0
M  V30 42 H -12.3882 3.0267 -1.1891 0
M  V30 43 H -10.0168 -2.3411 -0.4167 0
M  V30 44 H -12.3211 -1.5827 0.0165 0
M  V30 45 H -12.9627 0.7481 -0.3770 0
M  V30 46 H -7.9292 -1.5526 -3.1954 0
M  V30 47 H -5.4863 -1.9574 -3.2670 0
M  V30 48 H -0.5616 -3.0544 -0.2374 0
M  V30 49 H 1.2772 -2.2080 1.2207 0
M  V30 50 H 4.8185 -1.2110 -0.0237 0
M  V30 51 H 7.2381 -1.1180 -0.3605 0
M  V30 52 H 13.3532 -0.8302 1.4897 0
M  V30 53 H 12.6919 -1.9597 3.5765 0
M  V30 54 H 8.6845 -0.7236 3.1385 0
M  V30 55 H 12.7219 0.5531 -0.4692 0
M  V30 56 H 10.9915 1.7001 -1.8117 0
M  V30 57 H 8.6496 1.7358 -1.0752 0
M  V30 58 H 7.5393 2.0897 2.4962 0
M  V30 59 H 5.0744 2.0779 2.7630 0
M  V30 60 H -5.1378 -0.5945 0.8159 0
M  V30 61 H -7.5536 -0.2086 0.8853 0
M  V30 62 H -7.7607 1.5808 -2.1765 0
M  V30 63 H -10.7252 4.5774 -2.1055 0
M  V30 END ATOM
M  V30 BEGIN BOND
M  V30 1 2 1 2
M  V30 2 1 2 3
M  V30 3 1 3 4
M  V30 4 2 4 5
M  V30 5 1 5 6
M  V30 6 2 6 7
M  V30 7 1 4 8
M  V30 8 2 8 9
M  V30 9 1 9 10
M  V30 10 2 10 11
M  V30 11 1 11 12
M  V30 12 3 12 13
M  V30 13 1 13 14
M  V30 14 2 14 15
M  V30 15 1 15 16
M  V30 16 2 16 17
M  V30 17 1 17 18
M  V30 18 3 18 19
M  V30 19 1 19 20
M  V30 20 2 20 21
M  V30 21 1 21 22
M  V30 22 2 22 23
M  V30 23 1 23 24
M  V30 24 1 24 25
M  V30 25 1 25 26
M  V30 26 2 26 27
M  V30 27 1 27 28
M  V30 28 2 28 29
M  V30 29 1 29 30
M  V30 30 1 26 31
M  V30 31 2 31 32
M  V30 32 1 32 33
M  V30 33 1 23 34
M  V30 34 2 34 35
M  V30 35 1 17 36
M  V30 36 1 11 37
M  V30 37 2 37 38
M  V30 38 2 3 39
M  V30 39 1 39 40
M  V30 40 2 40 41
M  V30 41 1 41 1
M  V30 42 1 7 2
M  V30 43 1 38 8
M  V30 44 1 36 14
M  V30 45 1 35 20
M  V30 46 2 33 24
M  V30 47 2 30 25
M  V30 48 1 1 42
M  V30 49 1 5 43
M  V30 50 1 6 44
M  V30 51 1 7 45
M  V30 52 1 9 46
M  V30 53 1 10 47
M  V30 54 1 15 48
M  V30 55 1 16 49
M  V30 56 1 21 50
M  V30 57 1 22 51
M  V30 58 1 27 52
M  V30 59 1 28 53
M  V30 60 1 30 54
M  V30 61 1 31 55
M  V30 62 1 32 56
M  V30 63 1 33 57
M  V30 64 1 34 58
M  V30 65 1 35 59
M  V30 66 1 37 60
M  V30 67 1 38 61
M  V30 68 1 39 62
M  V30 69 1 41 63
M  V30 END BOND
M  V30 END CTAB
M  END

$$$$
