
     RDKit          3D

  0  0  0  0  0  0  0  0  0  0999 V3000
M  V30 BEGIN CTAB
M  V30 COUNTS 63 69 0 0 0
M  V30 BEGIN ATOM
M  V30 1 C 12.0699 -0.2171 -2.4903 0
M  V30 2 C 11.3894 0.4279 -1.4490 0
M  V30 3 C 9.9776 0.5540 -1.5008 0
M  V30 4 C 9.2962 1.2037 -0.4385 0
M  V30 5 C 10.0376 1.7381 0.6282 0
M  V30 6 C 11.4265 1.6132 0.6648 0
M  V30 7 C 12.1010 0.9563 -0.3632 0
M  V30 8 C 7.8214 1.3282 -0.3975 0
M  V30 9 C 7.0128 0.1816 -0.3328 0
M  V30 10 C 5.6212 0.3028 -0.2723 0
M  V30 11 C 5.0265 1.5707 -0.2655 0
M  V30 12 C 3.5943 1.6949 -0.2021 0
M  V30 13 C 2.3946 1.7986 -0.1487 0
M  V30 14 C 0.9658 1.9217 -0.0847 0
M  V30 15 C 0.2527 3.1062 -0.2113 0
M  V30 16 C -1.1310 2.9234 -0.1048 0
M  V30 17 C -1.4867 1.5977 0.1042 0
M  V30 18 C -2.8281 1.1089 0.2543 0
M  V30 19 C -3.9544 0.6986 0.3812 0
M  V30 20 C -5.2990 0.2092 0.5335 0
M  V30 21 C -6.0152 0.4791 1.7064 0
M  V30 22 C -7.3220 0.0046 1.8549 0
M  V30 23 C -7.9205 -0.7521 0.8350 0
M  V30 24 C -9.3130 -1.2326 0.9848 0
M  V30 25 C -9.6491 -2.6117 0.9763 0
M  V30 26 C -11.0104 -2.9975 1.0755 0
M  V30 27 C -11.3520 -4.3562 1.0625 0
M  V30 28 C -10.3458 -5.3161 0.9662 0
M  V30 29 N -9.0446 -4.9358 0.8941 0
M  V30 30 C -8.6750 -3.6280 0.9001 0
M  V30 31 C -12.0087 -2.0211 1.1962 0
M  V30 32 C -11.6683 -0.6696 1.2267 0
M  V30 33 C -10.3335 -0.2775 1.1240 0
M  V30 34 C -7.2029 -1.0087 -0.3448 0
M  V30 35 C -5.8961 -0.5341 -0.4923 0
M  V30 36 S -0.1018 0.6460 0.1589 0
M  V30 37 C 5.8291 2.7174 -0.3157 0
M  V30 38 C 7.2208 2.5971 -0.3768 0
M  V30 39 C 9.3070 0.0463 -2.6323 0
M  V30 40 N 10.0018 -0.5697 -3.6247 0
M  V30 41 C 11.3505 -0.7159 -3.5750 0
M  V30 42 H 13.1474 -0.3294 -2.4679 0
M  V30 43 H 9.5344 2.2399 1.4461 0
M  V30 44 H 11.9825 2.0233 1.4981 0
M  V30 45 H 13.1799 0.8678 -0.3135 0
M  V30 46 H 7.4611 -0.8045 -0.3272 0
M  V30 47 H 5.0100 -0.5907 -0.2276 0
M  V30 48 H 0.7145 4.0714 -0.3747 0
M  V30 49 H -1.8454 3.7332 -0.1776 0
M  V30 50 H -5.5642 1.0567 2.5044 0
M  V30 51 H -7.8655 0.2209 2.7666 0
M  V30 52 H -12.3860 -4.6727 1.1316 0
M  V30 53 H -10.5993 -6.3677 0.9573 0
M  V30 54 H -7.6204 -3.3953 0.8590 0
M  V30 55 H -13.0519 -2.3037 1.2745 0
M  V30 56 H -12.4437 0.0792 1.3251 0
M  V30 57 H -10.0950 0.7794 1.1357 0
M  V30 58 H -7.6572 -1.5736 -1.1496 0
M  V30 59 H -5.3531 -0.7434 -1.4062 0
M  V30 60 H 5.3793 3.7030 -0.3064 0
M  V30 61 H 7.8304 3.4917 -0.4146 0
M  V30 62 H 8.2366 0.1454 -2.7441 0
M  V30 63 H 11.8669 -1.2136 -4.3849 0
M  V30 END ATOM
M  V30 BEGIN BOND
M  V30 1 2 1 2
M  V30 2 1 2 3
M  V30 3 1 3 4
M  V30 4 2 4 5
M  V30 5 1 5 6
M  V30 6 2 6 7
M  V30 7 1 4 8
M  V30 8 2 8 9
M  V30 9 1 9 10
M  V30 10 2 10 11
M  V30 11 1 11 12
M  V30 12 3 12 13
M  V30 13 1 13 14
M  V30 14 2 14 15
M  V30 15 1 15 16
M  V30 16 2 16 17
M  V30 17 1 17 18
M  V30 18 3 18 19
M  V30 19 1 19 20
M  V30 20 2 20 21
M  V30 21 1 21 22
M  V30 22 2 22 23
M  V30 23 1 23 24
M  V30 24 1 24 25
M  V30 25 1 25 26
M  V30 26 2 26 27
M  V30 27 1 27 28
M  V30 28 2 28 29
M  V30 29 1 29 30
M  V30 30 1 26 31
M  V30 31 2 31 32
M  V30 32 1 32 33
M  V30 33 1 23 34
M  V30 34 2 34 35
M  V30 35 1 17 36
M  V30 36 1 11 37
M  V30 37 2 37 38
M  V30 38 2 3 39
M  V30 39 1 39 40
M  V30 40 2 40 41
M  V30 41 1 41 1
M  V30 42 1 7 2
M  V30 43 1 38 8
M  V30 44 1 36 14
M  V30 45 1 35 20
M  V30 46 2 33 24
M  V30 47 2 30 25
M  V30 48 1 1 42
M  V30 49 1 5 43
M  V30 50 1 6 44
M  V30 51 1 7 45
M  V30 52 1 9 46
M  V30 53 1 10 47
M  V30 54 1 15 48
M  V30 55 1 16 49
M  V30 56 1 21 50
M  V30 57 1 22 51
M  V30 58 1 27 52
M  V30 59 1 28 53
M  V30 60 1 30 54
M  V30 61 1 31 55
M  V30 62 1 32 56
M  V30 63 1 33 57
M  V30 64 1 34 58
M  V30 65 1 35 59
M  V30 66 1 37 60
M  V30 67 1 38 61
M  V30 68 1 39 62
M  V30 69 1 41 63
M  V30 END BOND
M  V30 END CTAB
M  END

$$$$
