
     RDKit          3D

  0  0  0  0  0  0  0  0  0  0999 V3000
M  V30 BEGIN CTAB
M  V30 COUNTS 63 69 0 0 0
M  V30 BEGIN ATOM
M  V30 1 C 12.5058 -0.3812 2.1283 0
M  V30 2 C 11.4847 -1.2327 1.6863 0
M  V30 3 C 10.2085 -0.6995 1.3719 0
M  V30 4 C 9.1784 -1.5708 0.9307 0
M  V30 5 C 9.4533 -2.9403 0.7828 0
M  V30 6 C 10.7144 -3.4519 1.0892 0
M  V30 7 C 11.7247 -2.6064 1.5452 0
M  V30 8 C 7.8073 -1.0963 0.6353 0
M  V30 9 C 7.2687 -1.2516 -0.6520 0
M  V30 10 C 5.9651 -0.8268 -0.9268 0
M  V30 11 C 5.1860 -0.2516 0.0849 0
M  V30 12 C 3.8428 0.1808 -0.1967 0
M  V30 13 C 2.7166 0.5410 -0.4306 0
M  V30 14 C 1.3739 0.9671 -0.7066 0
M  V30 15 C 1.0087 2.2101 -1.2059 0
M  V30 16 C -0.3748 2.3462 -1.3708 0
M  V30 17 C -1.0778 1.2081 -0.9993 0
M  V30 18 C -2.5042 1.0552 -1.0509 0
M  V30 19 C -3.7018 0.9250 -1.0910 0
M  V30 20 C -5.1314 0.7676 -1.1351 0
M  V30 21 C -5.7454 -0.2643 -0.4146 0
M  V30 22 C -7.1345 -0.4162 -0.4538 0
M  V30 23 C -7.9229 0.4697 -1.2065 0
M  V30 24 C -9.3923 0.2984 -1.2661 0
M  V30 25 C -10.2184 0.3950 -0.1158 0
M  V30 26 C -11.6127 0.1651 -0.2382 0
M  V30 27 C -12.4347 0.2507 0.8932 0
M  V30 28 C -11.8730 0.5769 2.1265 0
M  V30 29 N -10.5407 0.8179 2.2274 0
M  V30 30 C -9.7114 0.7400 1.1536 0
M  V30 31 C -12.1660 -0.1377 -1.4898 0
M  V30 32 C -11.3512 -0.2069 -2.6189 0
M  V30 33 C -9.9775 0.0102 -2.5100 0
M  V30 34 C -7.3012 1.4937 -1.9387 0
M  V30 35 C -5.9115 1.6445 -1.8992 0
M  V30 36 S -0.0019 0.0316 -0.4662 0
M  V30 37 C 5.7142 -0.1057 1.3737 0
M  V30 38 C 7.0172 -0.5309 1.6495 0
M  V30 39 C 10.0244 0.6934 1.4868 0
M  V30 40 N 11.0402 1.4883 1.9152 0
M  V30 41 C 12.2588 0.9861 2.2403 0
M  V30 42 H 13.4862 -0.7684 2.3794 0
M  V30 43 H 8.6798 -3.6196 0.4447 0
M  V30 44 H 10.9075 -4.5111 0.9781 0
M  V30 45 H 12.6962 -3.0250 1.7805 0
M  V30 46 H 7.8607 -1.6959 -1.4428 0
M  V30 47 H 5.5643 -0.9488 -1.9260 0
M  V30 48 H 1.7160 2.9944 -1.4424 0
M  V30 49 H -0.8435 3.2461 -1.7472 0
M  V30 50 H -5.1507 -0.9520 0.1748 0
M  V30 51 H -7.5966 -1.2239 0.1006 0
M  V30 52 H -13.5012 0.0724 0.8233 0
M  V30 53 H -12.4995 0.6479 3.0057 0
M  V30 54 H -8.6638 0.9622 1.3004 0
M  V30 55 H -13.2301 -0.3135 -1.5959 0
M  V30 56 H -11.7855 -0.4366 -3.5834 0
M  V30 57 H -9.3627 -0.0646 -3.3990 0
M  V30 58 H -7.8935 2.1785 -2.5333 0
M  V30 59 H -5.4460 2.4435 -2.4638 0
M  V30 60 H 5.1178 0.3319 2.1652 0
M  V30 61 H 7.4102 -0.4227 2.6531 0
M  V30 62 H 9.0852 1.1608 1.2269 0
M  V30 63 H 13.0413 1.6522 2.5785 0
M  V30 END ATOM
M  V30 BEGIN BOND
M  V30 1 2 1 2
M  V30 2 1 2 3
M  V30 3 1 3 4
M  V30 4 2 4 5
M  V30 5 1 5 6
M  V30 6 2 6 7
M  V30 7 1 4 8
M  V30 8 2 8 9
M  V30 9 1 9 10
M  V30 10 2 10 11
M  V30 11 1 11 12
M  V30 12 3 12 13
M  V30 13 1 13 14
M  V30 14 2 14 15
M  V30 15 1 15 16
M  V30 16 2 16 17
M  V30 17 1 17 18
M  V30 18 3 18 19
M  V30 19 1 19 20
M  V30 20 2 20 21
M  V30 21 1 21 22
M  V30 22 2 22 23
M  V30 23 1 23 24
M  V30 24 1 24 25
M  V30 25 1 25 26
M  V30 26 2 26 27
M  V30 27 1 27 28
M  V30 28 2 28 29
M  V30 29 1 29 30
M  V30 30 1 26 31
M  V30 31 2 31 32
M  V30 32 1 32 33
M  V30 33 1 23 34
M  V30 34 2 34 35
M  V30 35 1 17 36
M  V30 36 1 11 37
M  V30 37 2 37 38
M  V30 38 2 3 39
M  V30 39 1 39 40
M  V30 40 2 40 41
M  V30 41 1 41 1
M  V30 42 1 7 2
M  V30 43 1 38 8
M  V30 44 1 36 14
M  V30 45 1 35 20
M  V30 46 2 33 24
M  V30 47 2 30 25
M  V30 48 1 1 42
M  V30 49 1 5 43
M  V30 50 1 6 44
M  V30 51 1 7 45
M  V30 52 1 9 46
M  V30 53 1 10 47
M  V30 54 1 15 48
M  V30 55 1 16 49
M  V30 56 1 21 50
M  V30 57 1 22 51
M  V30 58 1 27 52
M  V30 59 1 28 53
M  V30 60 1 30 54
M  V30 61 1 31 55
M  V30 62 1 32 56
M  V30 63 1 33 57
M  V30 64 1 34 58
M  V30 65 1 35 59
M  V30 66 1 37 60
M  V30 67 1 38 61
M  V30 68 1 39 62
M  V30 69 1 41 63
M  V30 END BOND
M  V30 END CTAB
M  END

$$$$
