
     RDKit          3D

  0  0  0  0  0  0  0  0  0  0999 V3000
M  V30 BEGIN CTAB
M  V30 COUNTS 63 69 0 0 0
M  V30 BEGIN ATOM
M  V30 1 C 12.5993 0.5947 -0.6772 0
M  V30 2 C 11.6889 0.2345 0.3247 0
M  V30 3 C 10.2984 0.4201 0.1138 0
M  V30 4 C 9.3837 0.0599 1.1375 0
M  V30 5 C 9.8716 -0.5074 2.3261 0
M  V30 6 C 11.2410 -0.6918 2.5188 0
M  V30 7 C 12.1479 -0.3175 1.5286 0
M  V30 8 C 7.9242 0.2768 1.0130 0
M  V30 9 C 7.0409 -0.8131 1.0730 0
M  V30 10 C 5.6610 -0.6090 0.9762 0
M  V30 11 C 5.1518 0.6866 0.8286 0
M  V30 12 C 3.7323 0.8969 0.7217 0
M  V30 13 C 2.5441 1.0765 0.6287 0
M  V30 14 C 1.1297 1.2930 0.5145 0
M  V30 15 C 0.4907 2.5197 0.6368 0
M  V30 16 C -0.8955 2.4313 0.4661 0
M  V30 17 C -1.3273 1.1363 0.2128 0
M  V30 18 C -2.6891 0.7425 -0.0123 0
M  V30 19 C -3.8324 0.4122 -0.2027 0
M  V30 20 C -5.1974 0.0180 -0.4311 0
M  V30 21 C -5.7929 -0.9539 0.3828 0
M  V30 22 C -7.1176 -1.3392 0.1592 0
M  V30 23 C -7.8610 -0.7495 -0.8759 0
M  V30 24 C -9.2529 -1.1815 -1.1366 0
M  V30 25 C -10.2910 -1.0270 -0.1811 0
M  V30 26 C -11.5889 -1.5180 -0.4766 0
M  V30 27 C -12.6183 -1.3764 0.4636 0
M  V30 28 C -12.3574 -0.7390 1.6758 0
M  V30 29 N -11.1173 -0.2516 1.9376 0
M  V30 30 C -10.0929 -0.3738 1.0523 0
M  V30 31 C -11.8417 -2.1341 -1.7102 0
M  V30 32 C -10.8222 -2.2605 -2.6529 0
M  V30 33 C -9.5400 -1.7880 -2.3708 0
M  V30 34 C -7.2562 0.2172 -1.6956 0
M  V30 35 C -5.9312 0.6017 -1.4712 0
M  V30 36 S -0.0067 0.0959 0.1960 0
M  V30 37 C 6.0275 1.7787 0.7844 0
M  V30 38 C 7.4074 1.5758 0.8807 0
M  V30 39 C 9.8780 0.9334 -1.1301 0
M  V30 40 N 10.7906 1.2669 -2.0799 0
M  V30 41 C 12.1253 1.1171 -1.8794 0
M  V30 42 H 13.6660 0.4682 -0.5342 0
M  V30 43 H 9.1880 -0.7926 3.1167 0
M  V30 44 H 11.6021 -1.1212 3.4442 0
M  V30 45 H 13.2071 -0.4674 1.7006 0
M  V30 46 H 7.4218 -1.8203 1.1872 0
M  V30 47 H 4.9920 -1.4606 1.0168 0
M  V30 48 H 1.0068 3.4492 0.8403 0
M  V30 49 H -1.5577 3.2853 0.5227 0
M  V30 50 H -5.2321 -1.4161 1.1864 0
M  V30 51 H -7.5635 -2.1006 0.7876 0
M  V30 52 H -13.6157 -1.7502 0.2605 0
M  V30 53 H -13.1461 -0.6229 2.4078 0
M  V30 54 H -9.1356 0.0539 1.3154 0
M  V30 55 H -12.8301 -2.5106 -1.9487 0
M  V30 56 H -11.0246 -2.7338 -3.6053 0
M  V30 57 H -8.7607 -1.9130 -3.1131 0
M  V30 58 H -7.8120 0.6745 -2.5052 0
M  V30 59 H -5.4780 1.3511 -2.1095 0
M  V30 60 H 5.6439 2.7858 0.6773 0
M  V30 61 H 8.0737 2.4297 0.8528 0
M  V30 62 H 8.8299 1.0603 -1.3624 0
M  V30 63 H 12.8206 1.3970 -2.6593 0
M  V30 END ATOM
M  V30 BEGIN BOND
M  V30 1 2 1 2
M  V30 2 1 2 3
M  V30 3 1 3 4
M  V30 4 2 4 5
M  V30 5 1 5 6
M  V30 6 2 6 7
M  V30 7 1 4 8
M  V30 8 2 8 9
M  V30 9 1 9 10
M  V30 10 2 10 11
M  V30 11 1 11 12
M  V30 12 3 12 13
M  V30 13 1 13 14
M  V30 14 2 14 15
M  V30 15 1 15 16
M  V30 16 2 16 17
M  V30 17 1 17 18
M  V30 18 3 18 19
M  V30 19 1 19 20
M  V30 20 2 20 21
M  V30 21 1 21 22
M  V30 22 2 22 23
M  V30 23 1 23 24
M  V30 24 1 24 25
M  V30 25 1 25 26
M  V30 26 2 26 27
M  V30 27 1 27 28
M  V30 28 2 28 29
M  V30 29 1 29 30
M  V30 30 1 26 31
M  V30 31 2 31 32
M  V30 32 1 32 33
M  V30 33 1 23 34
M  V30 34 2 34 35
M  V30 35 1 17 36
M  V30 36 1 11 37
M  V30 37 2 37 38
M  V30 38 2 3 39
M  V30 39 1 39 40
M  V30 40 2 40 41
M  V30 41 1 41 1
M  V30 42 1 7 2
M  V30 43 1 38 8
M  V30 44 1 36 14
M  V30 45 1 35 20
M  V30 46 2 33 24
M  V30 47 2 30 25
M  V30 48 1 1 42
M  V30 49 1 5 43
M  V30 50 1 6 44
M  V30 51 1 7 45
M  V30 52 1 9 46
M  V30 53 1 10 47
M  V30 54 1 15 48
M  V30 55 1 16 49
M  V30 56 1 21 50
M  V30 57 1 22 51
M  V30 58 1 27 52
M  V30 59 1 28 53
M  V30 60 1 30 54
M  V30 61 1 31 55
M  V30 62 1 32 56
M  V30 63 1 33 57
M  V30 64 1 34 58
M  V30 65 1 35 59
M  V30 66 1 37 60
M  V30 67 1 38 61
M  V30 68 1 39 62
M  V30 69 1 41 63
M  V30 END BOND
M  V30 END CTAB
M  END

$$$$
