
     RDKit          3D

  0  0  0  0  0  0  0  0  0  0999 V3000
M  V30 BEGIN CTAB
M  V30 COUNTS 63 69 0 0 0
M  V30 BEGIN ATOM
M  V30 1 C -11.8931 2.3661 -0.9755 0
M  V30 2 C -11.3511 1.2490 -0.3269 0
M  V30 3 C -9.9477 1.0481 -0.3233 0
M  V30 4 C -9.4083 -0.0877 0.3346 0
M  V30 5 C -10.2728 -0.9752 0.9958 0
M  V30 6 C -11.6516 -0.7638 0.9901 0
M  V30 7 C -12.1915 0.3374 0.3269 0
M  V30 8 C -7.9593 -0.3855 0.3435 0
M  V30 9 C -7.2545 -0.4181 1.5570 0
M  V30 10 C -5.8899 -0.7180 1.5706 0
M  V30 11 C -5.2198 -0.9982 0.3726 0
M  V30 12 C -3.8129 -1.2999 0.3882 0
M  V30 13 C -2.6336 -1.5472 0.4018 0
M  V30 14 C -1.2279 -1.8356 0.4179 0
M  V30 15 C -0.6577 -3.0521 0.7680 0
M  V30 16 C 0.7408 -3.0398 0.6970 0
M  V30 17 C 1.2503 -1.8135 0.2921 0
M  V30 18 C 2.6424 -1.4991 0.1362 0
M  V30 19 C 3.8104 -1.2303 0.0065 0
M  V30 20 C 5.2029 -0.9027 -0.1471 0
M  V30 21 C 6.0930 -1.1060 0.9148 0
M  V30 22 C 7.4432 -0.7735 0.7714 0
M  V30 23 C 7.9133 -0.2267 -0.4344 0
M  V30 24 C 9.3440 0.1218 -0.5932 0
M  V30 25 C 9.9793 1.1137 0.1994 0
M  V30 26 C 11.3642 1.3663 0.0222 0
M  V30 27 C 12.0006 2.3398 0.8045 0
M  V30 28 C 11.2600 3.0600 1.7411 0
M  V30 29 N 9.9304 2.8255 1.8863 0
M  V30 30 C 9.2795 1.8875 1.1482 0
M  V30 31 C 12.0901 0.6493 -0.9394 0
M  V30 32 C 11.4540 -0.3075 -1.7291 0
M  V30 33 C 10.0935 -0.5688 -1.5602 0
M  V30 34 C 7.0210 -0.0433 -1.5027 0
M  V30 35 C 5.6702 -0.3746 -1.3570 0
M  V30 36 S -0.0156 -0.7406 0.0205 0
M  V30 37 C -5.9212 -0.9806 -0.8397 0
M  V30 38 C -7.2861 -0.6785 -0.8544 0
M  V30 39 C -9.1372 2.0111 -0.9577 0
M  V30 40 N -9.6994 3.0845 -1.5728 0
M  V30 41 C -11.0426 3.2767 -1.5998 0
M  V30 42 H -12.9631 2.5368 -0.9934 0
M  V30 43 H -9.8766 -1.8450 1.5069 0
M  V30 44 H -12.3053 -1.4608 1.4991 0
M  V30 45 H -13.2654 0.4810 0.3315 0
M  V30 46 H -7.7592 -0.2024 2.4900 0
M  V30 47 H -5.3569 -0.7308 2.5137 0
M  V30 48 H -1.2301 -3.9203 1.0679 0
M  V30 49 H 1.3568 -3.8977 0.9352 0
M  V30 50 H 5.7421 -1.5187 1.8531 0
M  V30 51 H 8.1220 -0.9375 1.5994 0
M  V30 52 H 13.0587 2.5454 0.6884 0
M  V30 53 H 11.7417 3.8154 2.3482 0
M  V30 54 H 8.2169 1.7640 1.3020 0
M  V30 55 H 13.1483 0.8347 -1.0852 0
M  V30 56 H 12.0197 -0.8535 -2.4735 0
M  V30 57 H 9.6236 -1.3252 -2.1773 0
M  V30 58 H 7.3698 0.3672 -2.4431 0
M  V30 59 H 4.9906 -0.2169 -2.1857 0
M  V30 60 H -5.4135 -1.2016 -1.7716 0
M  V30 61 H -7.8196 -0.6756 -1.7972 0
M  V30 62 H -8.0593 1.9266 -0.9586 0
M  V30 63 H -11.4507 4.1450 -2.1000 0
M  V30 END ATOM
M  V30 BEGIN BOND
M  V30 1 2 1 2
M  V30 2 1 2 3
M  V30 3 1 3 4
M  V30 4 2 4 5
M  V30 5 1 5 6
M  V30 6 2 6 7
M  V30 7 1 4 8
M  V30 8 2 8 9
M  V30 9 1 9 10
M  V30 10 2 10 11
M  V30 11 1 11 12
M  V30 12 3 12 13
M  V30 13 1 13 14
M  V30 14 2 14 15
M  V30 15 1 15 16
M  V30 16 2 16 17
M  V30 17 1 17 18
M  V30 18 3 18 19
M  V30 19 1 19 20
M  V30 20 2 20 21
M  V30 21 1 21 22
M  V30 22 2 22 23
M  V30 23 1 23 24
M  V30 24 1 24 25
M  V30 25 1 25 26
M  V30 26 2 26 27
M  V30 27 1 27 28
M  V30 28 2 28 29
M  V30 29 1 29 30
M  V30 30 1 26 31
M  V30 31 2 31 32
M  V30 32 1 32 33
M  V30 33 1 23 34
M  V30 34 2 34 35
M  V30 35 1 17 36
M  V30 36 1 11 37
M  V30 37 2 37 38
M  V30 38 2 3 39
M  V30 39 1 39 40
M  V30 40 2 40 41
M  V30 41 1 41 1
M  V30 42 1 7 2
M  V30 43 1 38 8
M  V30 44 1 36 14
M  V30 45 1 35 20
M  V30 46 2 33 24
M  V30 47 2 30 25
M  V30 48 1 1 42
M  V30 49 1 5 43
M  V30 50 1 6 44
M  V30 51 1 7 45
M  V30 52 1 9 46
M  V30 53 1 10 47
M  V30 54 1 15 48
M  V30 55 1 16 49
M  V30 56 1 21 50
M  V30 57 1 22 51
M  V30 58 1 27 52
M  V30 59 1 28 53
M  V30 60 1 30 54
M  V30 61 1 31 55
M  V30 62 1 32 56
M  V30 63 1 33 57
M  V30 64 1 34 58
M  V30 65 1 35 59
M  V30 66 1 37 60
M  V30 67 1 38 61
M  V30 68 1 39 62
M  V30 69 1 41 63
M  V30 END BOND
M  V30 END CTAB
M  END

$$$$
