
     RDKit          3D

  0  0  0  0  0  0  0  0  0  0999 V3000
M  V30 BEGIN CTAB
M  V30 COUNTS 63 69 0 0 0
M  V30 BEGIN ATOM
M  V30 1 C 12.7363 -0.1114 0.9364 0
M  V30 2 C 11.6686 -0.9507 0.5917 0
M  V30 3 C 10.3368 -0.4717 0.6843 0
M  V30 4 C 9.2618 -1.3273 0.3276 0
M  V30 5 C 9.5369 -2.6431 -0.0796 0
M  V30 6 C 10.8508 -3.1047 -0.1610 0
M  V30 7 C 11.9134 -2.2634 0.1657 0
M  V30 8 C 7.8499 -0.8822 0.3503 0
M  V30 9 C 7.4179 0.1550 -0.4925 0
M  V30 10 C 6.0796 0.5593 -0.4838 0
M  V30 11 C 5.1596 -0.0761 0.3596 0
M  V30 12 C 3.7823 0.3407 0.3685 0
M  V30 13 C 2.6288 0.6904 0.3759 0
M  V30 14 C 1.2553 1.1077 0.3847 0
M  V30 15 C 0.7891 2.3344 0.8383 0
M  V30 16 C -0.5998 2.4655 0.7245 0
M  V30 17 C -1.2066 1.3402 0.1830 0
M  V30 18 C -2.6140 1.1857 -0.0537 0
M  V30 19 C -3.7958 1.0567 -0.2527 0
M  V30 20 C -5.2068 0.9036 -0.4904 0
M  V30 21 C -6.1287 1.2677 0.4990 0
M  V30 22 C -7.4997 1.1214 0.2675 0
M  V30 23 C -7.9602 0.6000 -0.9526 0
M  V30 24 C -9.4122 0.4666 -1.2101 0
M  V30 25 C -10.2504 -0.3752 -0.4330 0
M  V30 26 C -11.6419 -0.4151 -0.7048 0
M  V30 27 C -12.4778 -1.2387 0.0608 0
M  V30 28 C -11.9281 -2.0225 1.0740 0
M  V30 29 N -10.5916 -1.9930 1.3105 0
M  V30 30 C -9.7501 -1.2040 0.5918 0
M  V30 31 C -12.1759 0.3606 -1.7429 0
M  V30 32 C -11.3425 1.1672 -2.5162 0
M  V30 33 C -9.9732 1.2196 -2.2547 0
M  V30 34 C -7.0324 0.2487 -1.9460 0
M  V30 35 C -5.6614 0.3957 -1.7138 0
M  V30 36 S -0.0380 0.1805 -0.1579 0
M  V30 37 C 5.5824 -1.1204 1.1915 0
M  V30 38 C 6.9208 -1.5251 1.1838 0
M  V30 39 C 10.1348 0.8406 1.1584 0
M  V30 40 N 11.1957 1.6239 1.4871 0
M  V30 41 C 12.4755 1.1836 1.3814 0
M  V30 42 H 13.7616 -0.4553 0.8676 0
M  V30 43 H 8.7286 -3.3110 -0.3527 0
M  V30 44 H 11.0465 -4.1189 -0.4846 0
M  V30 45 H 12.9264 -2.6412 0.0927 0
M  V30 46 H 8.1178 0.6479 -1.1563 0
M  V30 47 H 5.7619 1.3641 -1.1358 0
M  V30 48 H 1.4292 3.1102 1.2381 0
M  V30 49 H -1.1404 3.3529 1.0276 0
M  V30 50 H -5.7880 1.6674 1.4466 0
M  V30 51 H -8.2031 1.4162 1.0367 0
M  V30 52 H -13.5443 -1.2800 -0.1261 0
M  V30 53 H -12.5648 -2.6634 1.6692 0
M  V30 54 H -8.6944 -1.2427 0.8200 0
M  V30 55 H -13.2372 0.3371 -1.9611 0
M  V30 56 H -11.7606 1.7601 -3.3196 0
M  V30 57 H -9.3480 1.8652 -2.8600 0
M  V30 58 H -7.3712 -0.1445 -2.8968 0
M  V30 59 H -4.9569 0.1151 -2.4876 0
M  V30 60 H 4.8781 -1.6215 1.8447 0
M  V30 61 H 7.2352 -2.3342 1.8318 0
M  V30 62 H 9.1414 1.2474 1.2839 0
M  V30 63 H 13.2929 1.8385 1.6521 0
M  V30 END ATOM
M  V30 BEGIN BOND
M  V30 1 2 1 2
M  V30 2 1 2 3
M  V30 3 1 3 4
M  V30 4 2 4 5
M  V30 5 1 5 6
M  V30 6 2 6 7
M  V30 7 1 4 8
M  V30 8 2 8 9
M  V30 9 1 9 10
M  V30 10 2 10 11
M  V30 11 1 11 12
M  V30 12 3 12 13
M  V30 13 1 13 14
M  V30 14 2 14 15
M  V30 15 1 15 16
M  V30 16 2 16 17
M  V30 17 1 17 18
M  V30 18 3 18 19
M  V30 19 1 19 20
M  V30 20 2 20 21
M  V30 21 1 21 22
M  V30 22 2 22 23
M  V30 23 1 23 24
M  V30 24 1 24 25
M  V30 25 1 25 26
M  V30 26 2 26 27
M  V30 27 1 27 28
M  V30 28 2 28 29
M  V30 29 1 29 30
M  V30 30 1 26 31
M  V30 31 2 31 32
M  V30 32 1 32 33
M  V30 33 1 23 34
M  V30 34 2 34 35
M  V30 35 1 17 36
M  V30 36 1 11 37
M  V30 37 2 37 38
M  V30 38 2 3 39
M  V30 39 1 39 40
M  V30 40 2 40 41
M  V30 41 1 41 1
M  V30 42 1 7 2
M  V30 43 1 38 8
M  V30 44 1 36 14
M  V30 45 1 35 20
M  V30 46 2 33 24
M  V30 47 2 30 25
M  V30 48 1 1 42
M  V30 49 1 5 43
M  V30 50 1 6 44
M  V30 51 1 7 45
M  V30 52 1 9 46
M  V30 53 1 10 47
M  V30 54 1 15 48
M  V30 55 1 16 49
M  V30 56 1 21 50
M  V30 57 1 22 51
M  V30 58 1 27 52
M  V30 59 1 28 53
M  V30 60 1 30 54
M  V30 61 1 31 55
M  V30 62 1 32 56
M  V30 63 1 33 57
M  V30 64 1 34 58
M  V30 65 1 35 59
M  V30 66 1 37 60
M  V30 67 1 38 61
M  V30 68 1 39 62
M  V30 69 1 41 63
M  V30 END BOND
M  V30 END CTAB
M  END

$$$$
