
     RDKit          3D

  0  0  0  0  0  0  0  0  0  0999 V3000
M  V30 BEGIN CTAB
M  V30 COUNTS 63 69 0 0 0
M  V30 BEGIN ATOM
M  V30 1 C -12.3449 -0.7461 -0.3534 0
M  V30 2 C -11.3746 -1.4591 -1.0698 0
M  V30 3 C -10.0159 -1.0567 -1.0091 0
M  V30 4 C -9.0405 -1.7823 -1.7416 0
M  V30 5 C -9.4361 -2.9042 -2.4886 0
M  V30 6 C -10.7749 -3.2934 -2.5363 0
M  V30 7 C -11.7420 -2.5732 -1.8369 0
M  V30 8 C -7.6119 -1.3942 -1.7649 0
M  V30 9 C -7.2196 -0.1583 -2.3052 0
M  V30 10 C -5.8677 0.1966 -2.3445 0
M  V30 11 C -4.8962 -0.6843 -1.8527 0
M  V30 12 C -3.5047 -0.3198 -1.8922 0
M  V30 13 C -2.3382 -0.0177 -1.9235 0
M  V30 14 C -0.9479 0.3384 -1.9588 0
M  V30 15 C -0.2902 0.9144 -3.0371 0
M  V30 16 C 1.0680 1.1442 -2.7877 0
M  V30 17 C 1.4594 0.7455 -1.5168 0
M  V30 18 C 2.7870 0.8520 -0.9813 0
M  V30 19 C 3.9014 0.9397 -0.5303 0
M  V30 20 C 5.2313 1.0421 0.0097 0
M  V30 21 C 5.7674 2.2974 0.3229 0
M  V30 22 C 7.0590 2.3967 0.8493 0
M  V30 23 C 7.8220 1.2400 1.0759 0
M  V30 24 C 9.1979 1.3493 1.6123 0
M  V30 25 C 9.5869 0.7561 2.8419 0
M  V30 26 C 10.9357 0.8579 3.2685 0
M  V30 27 C 11.3302 0.2704 4.4779 0
M  V30 28 C 10.3865 -0.3973 5.2565 0
M  V30 29 N 9.0934 -0.4688 4.8494 0
M  V30 30 C 8.6742 0.0855 3.6815 0
M  V30 31 C 11.8679 1.5530 2.4859 0
M  V30 32 C 11.4725 2.1529 1.2912 0
M  V30 33 C 10.1503 2.0545 0.8581 0
M  V30 34 C 7.2852 -0.0155 0.7464 0
M  V30 35 C 5.9935 -0.1138 0.2206 0
M  V30 36 S 0.1379 0.1085 -0.6963 0
M  V30 37 C -5.2814 -1.9232 -1.3252 0
M  V30 38 C -6.6329 -2.2792 -1.2859 0
M  V30 39 C -9.6853 0.0432 -0.1917 0
M  V30 40 N -10.6540 0.7079 0.4916 0
M  V30 41 C -11.9603 0.3450 0.4239 0
M  V30 42 H -13.3892 -1.0332 -0.3899 0
M  V30 43 H -8.7048 -3.4712 -3.0520 0
M  V30 44 H -11.0650 -4.1554 -3.1231 0
M  V30 45 H -12.7766 -2.8911 -1.8896 0
M  V30 46 H -7.9609 0.5278 -2.6964 0
M  V30 47 H -5.5803 1.1549 -2.7602 0
M  V30 48 H -0.7730 1.1599 -3.9740 0
M  V30 49 H 1.7398 1.5851 -3.5124 0
M  V30 50 H 5.1878 3.1981 0.1596 0
M  V30 51 H 7.4623 3.3735 1.0872 0
M  V30 52 H 12.3567 0.3315 4.8197 0
M  V30 53 H 10.6808 -0.8531 6.1924 0
M  V30 54 H 7.6269 0.0079 3.4267 0
M  V30 55 H 12.9007 1.6386 2.8021 0
M  V30 56 H 12.1964 2.6919 0.6937 0
M  V30 57 H 9.8704 2.5161 -0.0813 0
M  V30 58 H 7.8682 -0.9161 0.8956 0
M  V30 59 H 5.5907 -1.0894 -0.0240 0
M  V30 60 H -4.5375 -2.6134 -0.9455 0
M  V30 61 H -6.9175 -3.2407 -0.8760 0
M  V30 62 H -8.6625 0.3735 -0.0787 0
M  V30 63 H -12.7017 0.9007 0.9824 0
M  V30 END ATOM
M  V30 BEGIN BOND
M  V30 1 2 1 2
M  V30 2 1 2 3
M  V30 3 1 3 4
M  V30 4 2 4 5
M  V30 5 1 5 6
M  V30 6 2 6 7
M  V30 7 1 4 8
M  V30 8 2 8 9
M  V30 9 1 9 10
M  V30 10 2 10 11
M  V30 11 1 11 12
M  V30 12 3 12 13
M  V30 13 1 13 14
M  V30 14 2 14 15
M  V30 15 1 15 16
M  V30 16 2 16 17
M  V30 17 1 17 18
M  V30 18 3 18 19
M  V30 19 1 19 20
M  V30 20 2 20 21
M  V30 21 1 21 22
M  V30 22 2 22 23
M  V30 23 1 23 24
M  V30 24 1 24 25
M  V30 25 1 25 26
M  V30 26 2 26 27
M  V30 27 1 27 28
M  V30 28 2 28 29
M  V30 29 1 29 30
M  V30 30 1 26 31
M  V30 31 2 31 32
M  V30 32 1 32 33
M  V30 33 1 23 34
M  V30 34 2 34 35
M  V30 35 1 17 36
M  V30 36 1 11 37
M  V30 37 2 37 38
M  V30 38 2 3 39
M  V30 39 1 39 40
M  V30 40 2 40 41
M  V30 41 1 41 1
M  V30 42 1 7 2
M  V30 43 1 38 8
M  V30 44 1 36 14
M  V30 45 1 35 20
M  V30 46 2 33 24
M  V30 47 2 30 25
M  V30 48 1 1 42
M  V30 49 1 5 43
M  V30 50 1 6 44
M  V30 51 1 7 45
M  V30 52 1 9 46
M  V30 53 1 10 47
M  V30 54 1 15 48
M  V30 55 1 16 49
M  V30 56 1 21 50
M  V30 57 1 22 51
M  V30 58 1 27 52
M  V30 59 1 28 53
M  V30 60 1 30 54
M  V30 61 1 31 55
M  V30 62 1 32 56
M  V30 63 1 33 57
M  V30 64 1 34 58
M  V30 65 1 35 59
M  V30 66 1 37 60
M  V30 67 1 38 61
M  V30 68 1 39 62
M  V30 69 1 41 63
M  V30 END BOND
M  V30 END CTAB
M  END

$$$$
