
     RDKit          3D

  0  0  0  0  0  0  0  0  0  0999 V3000
M  V30 BEGIN CTAB
M  V30 COUNTS 63 69 0 0 0
M  V30 BEGIN ATOM
M  V30 1 C 12.2271 1.6754 -0.0332 0
M  V30 2 C 11.5205 0.8254 0.8279 0
M  V30 3 C 10.1159 0.6878 0.6870 0
M  V30 4 C 9.4078 -0.1720 1.5669 0
M  V30 5 C 10.1175 -0.8943 2.5405 0
M  V30 6 C 11.4998 -0.7547 2.6656 0
M  V30 7 C 12.1994 0.1045 1.8198 0
M  V30 8 C 7.9368 -0.3310 1.5108 0
M  V30 9 C 7.3732 -1.5891 1.2459 0
M  V30 10 C 5.9844 -1.7455 1.2078 0
M  V30 11 C 5.1472 -0.6480 1.4434 0
M  V30 12 C 3.7180 -0.8094 1.3973 0
M  V30 13 C 2.5213 -0.9472 1.3555 0
M  V30 14 C 1.0965 -1.1147 1.3026 0
M  V30 15 C 0.3668 -2.0421 2.0339 0
M  V30 16 C -1.0067 -1.9858 1.7697 0
M  V30 17 C -1.3378 -1.0154 0.8334 0
M  V30 18 C -2.6637 -0.7306 0.3627 0
M  V30 19 C -3.7768 -0.4916 -0.0332 0
M  V30 20 C -5.1055 -0.2063 -0.5067 0
M  V30 21 C -5.9758 -1.2550 -0.8294 0
M  V30 22 C -7.2658 -0.9782 -1.2918 0
M  V30 23 C -7.7001 0.3508 -1.4258 0
M  V30 24 C -9.0570 0.6477 -1.9383 0
M  V30 25 C -10.2350 0.2416 -1.2584 0
M  V30 26 C -11.5017 0.5172 -1.8340 0
M  V30 27 C -12.6696 0.1153 -1.1727 0
M  V30 28 C -12.5730 -0.5400 0.0539 0
M  V30 29 N -11.3560 -0.7788 0.6060 0
M  V30 30 C -10.2014 -0.4077 -0.0074 0
M  V30 31 C -11.5829 1.1985 -3.0564 0
M  V30 32 C -10.4218 1.6142 -3.7063 0
M  V30 33 C -9.1702 1.3439 -3.1530 0
M  V30 34 C -6.8193 1.3985 -1.1134 0
M  V30 35 C -5.5292 1.1207 -0.6514 0
M  V30 36 S 0.0562 -0.2237 0.3274 0
M  V30 37 C 5.7042 0.6060 1.7236 0
M  V30 38 C 7.0929 0.7632 1.7623 0
M  V30 39 C 9.4803 1.3986 -0.3516 0
M  V30 40 N 10.1999 2.2110 -1.1695 0
M  V30 41 C 11.5411 2.3672 -1.0300 0
M  V30 42 H 13.2995 1.7993 0.0604 0
M  V30 43 H 9.5938 -1.5578 3.2183 0
M  V30 44 H 12.0310 -1.3124 3.4261 0
M  V30 45 H 13.2727 0.1998 1.9356 0
M  V30 46 H 8.0096 -2.4458 1.0611 0
M  V30 47 H 5.5639 -2.7209 0.9943 0
M  V30 48 H 0.8098 -2.7386 2.7340 0
M  V30 49 H -1.7313 -2.6339 2.2455 0
M  V30 50 H -5.6562 -2.2851 -0.7271 0
M  V30 51 H -7.9258 -1.7979 -1.5482 0
M  V30 52 H -13.6471 0.3110 -1.5975 0
M  V30 53 H -13.4690 -0.8523 0.5734 0
M  V30 54 H -9.2670 -0.6119 0.4961 0
M  V30 55 H -12.5448 1.4164 -3.5051 0
M  V30 56 H -10.4915 2.1443 -4.6473 0
M  V30 57 H -8.2818 1.6644 -3.6840 0
M  V30 58 H -7.1346 2.4290 -1.2220 0
M  V30 59 H -4.8626 1.9395 -0.4086 0
M  V30 60 H 5.0655 1.4604 1.9132 0
M  V30 61 H 7.5119 1.7362 1.9878 0
M  V30 62 H 8.4185 1.3057 -0.5299 0
M  V30 63 H 12.0778 3.0244 -1.7011 0
M  V30 END ATOM
M  V30 BEGIN BOND
M  V30 1 2 1 2
M  V30 2 1 2 3
M  V30 3 1 3 4
M  V30 4 2 4 5
M  V30 5 1 5 6
M  V30 6 2 6 7
M  V30 7 1 4 8
M  V30 8 2 8 9
M  V30 9 1 9 10
M  V30 10 2 10 11
M  V30 11 1 11 12
M  V30 12 3 12 13
M  V30 13 1 13 14
M  V30 14 2 14 15
M  V30 15 1 15 16
M  V30 16 2 16 17
M  V30 17 1 17 18
M  V30 18 3 18 19
M  V30 19 1 19 20
M  V30 20 2 20 21
M  V30 21 1 21 22
M  V30 22 2 22 23
M  V30 23 1 23 24
M  V30 24 1 24 25
M  V30 25 1 25 26
M  V30 26 2 26 27
M  V30 27 1 27 28
M  V30 28 2 28 29
M  V30 29 1 29 30
M  V30 30 1 26 31
M  V30 31 2 31 32
M  V30 32 1 32 33
M  V30 33 1 23 34
M  V30 34 2 34 35
M  V30 35 1 17 36
M  V30 36 1 11 37
M  V30 37 2 37 38
M  V30 38 2 3 39
M  V30 39 1 39 40
M  V30 40 2 40 41
M  V30 41 1 41 1
M  V30 42 1 7 2
M  V30 43 1 38 8
M  V30 44 1 36 14
M  V30 45 1 35 20
M  V30 46 2 33 24
M  V30 47 2 30 25
M  V30 48 1 1 42
M  V30 49 1 5 43
M  V30 50 1 6 44
M  V30 51 1 7 45
M  V30 52 1 9 46
M  V30 53 1 10 47
M  V30 54 1 15 48
M  V30 55 1 16 49
M  V30 56 1 21 50
M  V30 57 1 22 51
M  V30 58 1 27 52
M  V30 59 1 28 53
M  V30 60 1 30 54
M  V30 61 1 31 55
M  V30 62 1 32 56
M  V30 63 1 33 57
M  V30 64 1 34 58
M  V30 65 1 35 59
M  V30 66 1 37 60
M  V30 67 1 38 61
M  V30 68 1 39 62
M  V30 69 1 41 63
M  V30 END BOND
M  V30 END CTAB
M  END

$$$$
