
     RDKit          3D

  0  0  0  0  0  0  0  0  0  0999 V3000
M  V30 BEGIN CTAB
M  V30 COUNTS 63 69 0 0 0
M  V30 BEGIN ATOM
M  V30 1 C -12.1088 -0.5574 3.4186 0
M  V30 2 C -11.3929 -1.0086 2.3017 0
M  V30 3 C -10.0634 -0.5623 2.0887 0
M  V30 4 C -9.3451 -1.0273 0.9563 0
M  V30 5 C -9.9769 -1.8964 0.0512 0
M  V30 6 C -11.2866 -2.3242 0.2687 0
M  V30 7 C -11.9909 -1.8901 1.3906 0
M  V30 8 C -7.9389 -0.6447 0.6943 0
M  V30 9 C -7.6023 0.0462 -0.4809 0
M  V30 10 C -6.2721 0.3891 -0.7411 0
M  V30 11 C -5.2657 0.0354 0.1659 0
M  V30 12 C -3.8962 0.3845 -0.1047 0
M  V30 13 C -2.7491 0.6754 -0.3337 0
M  V30 14 C -1.3832 1.0209 -0.6093 0
M  V30 15 C -0.9484 2.2311 -1.1338 0
M  V30 16 C 0.4396 2.2827 -1.3071 0
M  V30 17 C 1.0770 1.1125 -0.9168 0
M  V30 18 C 2.4900 0.8707 -0.9891 0
M  V30 19 C 3.6767 0.6694 -1.0540 0
M  V30 20 C 5.0935 0.4317 -1.1369 0
M  V30 21 C 5.5946 -0.8716 -1.0292 0
M  V30 22 C 6.9704 -1.1034 -1.1202 0
M  V30 23 C 7.8576 -0.0322 -1.3108 0
M  V30 24 C 9.3109 -0.2832 -1.4402 0
M  V30 25 C 10.2633 0.2695 -0.5447 0
M  V30 26 C 11.6446 0.0343 -0.7648 0
M  V30 27 C 12.5925 0.5819 0.1096 0
M  V30 28 C 12.1643 1.3409 1.1978 0
M  V30 29 N 10.8385 1.5406 1.4116 0
M  V30 30 C 9.8905 1.0295 0.5828 0
M  V30 31 C 12.0579 -0.7514 -1.8496 0
M  V30 32 C 11.1145 -1.3111 -2.7099 0
M  V30 33 C 9.7535 -1.0820 -2.5071 0
M  V30 34 C 7.3490 1.2715 -1.4290 0
M  V30 35 C 5.9734 1.5025 -1.3374 0
M  V30 36 S -0.0634 0.0095 -0.3586 0
M  V30 37 C -5.5940 -0.6658 1.3329 0
M  V30 38 C -6.9237 -1.0093 1.5938 0
M  V30 39 C -9.5165 0.3567 3.0072 0
M  V30 40 N -10.2434 0.7748 4.0771 0
M  V30 41 C -11.5091 0.3382 4.3023 0
M  V30 42 H -13.1235 -0.8894 3.6031 0
M  V30 43 H -9.4453 -2.2584 -0.8207 0
M  V30 44 H -11.7565 -3.0007 -0.4341 0
M  V30 45 H -13.0066 -2.2365 1.5419 0
M  V30 46 H -8.3712 0.3243 -1.1912 0
M  V30 47 H -6.0286 0.9274 -1.6494 0
M  V30 48 H -1.6101 3.0499 -1.3858 0
M  V30 49 H 0.9577 3.1436 -1.7072 0
M  V30 50 H 4.9223 -1.7074 -0.8783 0
M  V30 51 H 7.3453 -2.1160 -1.0377 0
M  V30 52 H 13.6528 0.4200 -0.0436 0
M  V30 53 H 12.8880 1.7665 1.8798 0
M  V30 54 H 8.8518 1.2102 0.8220 0
M  V30 55 H 13.1103 -0.9385 -2.0277 0
M  V30 56 H 11.4396 -1.9212 -3.5425 0
M  V30 57 H 9.0401 -1.5149 -3.1983 0
M  V30 58 H 8.0179 2.1069 -1.5968 0
M  V30 59 H 5.5958 2.5140 -1.4288 0
M  V30 60 H -4.8222 -0.9502 2.0379 0
M  V30 61 H -7.1636 -1.5608 2.4946 0
M  V30 62 H -8.5212 0.7579 2.8777 0
M  V30 63 H -12.0545 0.6947 5.1660 0
M  V30 END ATOM
M  V30 BEGIN BOND
M  V30 1 2 1 2
M  V30 2 1 2 3
M  V30 3 1 3 4
M  V30 4 2 4 5
M  V30 5 1 5 6
M  V30 6 2 6 7
M  V30 7 1 4 8
M  V30 8 2 8 9
M  V30 9 1 9 10
M  V30 10 2 10 11
M  V30 11 1 11 12
M  V30 12 3 12 13
M  V30 13 1 13 14
M  V30 14 2 14 15
M  V30 15 1 15 16
M  V30 16 2 16 17
M  V30 17 1 17 18
M  V30 18 3 18 19
M  V30 19 1 19 20
M  V30 20 2 20 21
M  V30 21 1 21 22
M  V30 22 2 22 23
M  V30 23 1 23 24
M  V30 24 1 24 25
M  V30 25 1 25 26
M  V30 26 2 26 27
M  V30 27 1 27 28
M  V30 28 2 28 29
M  V30 29 1 29 30
M  V30 30 1 26 31
M  V30 31 2 31 32
M  V30 32 1 32 33
M  V30 33 1 23 34
M  V30 34 2 34 35
M  V30 35 1 17 36
M  V30 36 1 11 37
M  V30 37 2 37 38
M  V30 38 2 3 39
M  V30 39 1 39 40
M  V30 40 2 40 41
M  V30 41 1 41 1
M  V30 42 1 7 2
M  V30 43 1 38 8
M  V30 44 1 36 14
M  V30 45 1 35 20
M  V30 46 2 33 24
M  V30 47 2 30 25
M  V30 48 1 1 42
M  V30 49 1 5 43
M  V30 50 1 6 44
M  V30 51 1 7 45
M  V30 52 1 9 46
M  V30 53 1 10 47
M  V30 54 1 15 48
M  V30 55 1 16 49
M  V30 56 1 21 50
M  V30 57 1 22 51
M  V30 58 1 27 52
M  V30 59 1 28 53
M  V30 60 1 30 54
M  V30 61 1 31 55
M  V30 62 1 32 56
M  V30 63 1 33 57
M  V30 64 1 34 58
M  V30 65 1 35 59
M  V30 66 1 37 60
M  V30 67 1 38 61
M  V30 68 1 39 62
M  V30 69 1 41 63
M  V30 END BOND
M  V30 END CTAB
M  END

$$$$
