
     RDKit          3D

  0  0  0  0  0  0  0  0  0  0999 V3000
M  V30 BEGIN CTAB
M  V30 COUNTS 63 69 0 0 0
M  V30 BEGIN ATOM
M  V30 1 C -12.5370 1.0612 0.3808 0
M  V30 2 C -11.6420 0.3527 -0.4317 0
M  V30 3 C -10.2813 0.2373 -0.0482 0
M  V30 4 C -9.3807 -0.4775 -0.8805 0
M  V30 5 C -9.8622 -1.0844 -2.0522 0
M  V30 6 C -11.2040 -0.9690 -2.4157 0
M  V30 7 C -12.0901 -0.2493 -1.6155 0
M  V30 8 C -7.9374 -0.5973 -0.5724 0
M  V30 9 C -7.3622 -1.8616 -0.3684 0
M  V30 10 C -5.9952 -1.9789 -0.0990 0
M  V30 11 C -5.1900 -0.8345 -0.0407 0
M  V30 12 C -3.7831 -0.9559 0.2358 0
M  V30 13 C -2.6045 -1.0575 0.4674 0
M  V30 14 C -1.2009 -1.1786 0.7428 0
M  V30 15 C -0.6445 -1.9039 1.7878 0
M  V30 16 C 0.7537 -1.8425 1.8102 0
M  V30 17 C 1.2775 -1.0698 0.7825 0
M  V30 18 C 2.6732 -0.8258 0.5519 0
M  V30 19 C 3.8450 -0.6209 0.3579 0
M  V30 20 C 5.2440 -0.3760 0.1261 0
M  V30 21 C 5.6653 0.2013 -1.0783 0
M  V30 22 C 7.0245 0.4392 -1.3042 0
M  V30 23 C 7.9733 0.1101 -0.3231 0
M  V30 24 C 9.4139 0.3416 -0.5741 0
M  V30 25 C 10.1994 1.2058 0.2328 0
M  V30 26 C 11.5854 1.3414 -0.0361 0
M  V30 27 C 12.3696 2.1879 0.7586 0
M  V30 28 C 11.7737 2.9001 1.7982 0
M  V30 29 N 10.4419 2.7796 2.0323 0
M  V30 30 C 9.6500 1.9657 1.2856 0
M  V30 31 C 12.1652 0.6373 -1.1004 0
M  V30 32 C 11.3823 -0.1918 -1.9023 0
M  V30 33 C 10.0192 -0.3380 -1.6441 0
M  V30 34 C 7.5470 -0.4814 0.8774 0
M  V30 35 C 6.1877 -0.7186 1.1025 0
M  V30 36 S 0.0238 -0.4596 -0.1570 0
M  V30 37 C -5.7564 0.4280 -0.2568 0
M  V30 38 C -7.1232 0.5462 -0.5264 0
M  V30 39 C -9.8836 0.8218 1.1716 0
M  V30 40 N -10.7817 1.4980 1.9353 0
M  V30 41 C -12.0813 1.6337 1.5673 0
M  V30 42 H -13.5793 1.1664 0.1039 0
M  V30 43 H -9.1896 -1.6365 -2.6977 0
M  V30 44 H -11.5576 -1.4356 -3.3261 0
M  V30 45 H -13.1276 -0.1695 -1.9179 0
M  V30 46 H -7.9739 -2.7545 -0.4114 0
M  V30 47 H -5.5663 -2.9607 0.0623 0
M  V30 48 H -1.2273 -2.4597 2.5111 0
M  V30 49 H 1.3596 -2.3461 2.5525 0
M  V30 50 H 4.9439 0.4662 -1.8420 0
M  V30 51 H 7.3374 0.8858 -2.2401 0
M  V30 52 H 13.4313 2.3017 0.5743 0
M  V30 53 H 12.3702 3.5580 2.4160 0
M  V30 54 H 8.5942 1.9308 1.5140 0
M  V30 55 H 13.2226 0.7342 -1.3166 0
M  V30 56 H 11.8353 -0.7290 -2.7257 0
M  V30 57 H 9.4344 -0.9994 -2.2723 0
M  V30 58 H 8.2680 -0.7599 1.6362 0
M  V30 59 H 5.8731 -1.1713 2.0352 0
M  V30 60 H -5.1415 1.3192 -0.2200 0
M  V30 61 H -7.5475 1.5274 -0.7015 0
M  V30 62 H -8.8685 0.7358 1.5327 0
M  V30 63 H -12.7651 2.1807 2.2025 0
M  V30 END ATOM
M  V30 BEGIN BOND
M  V30 1 2 1 2
M  V30 2 1 2 3
M  V30 3 1 3 4
M  V30 4 2 4 5
M  V30 5 1 5 6
M  V30 6 2 6 7
M  V30 7 1 4 8
M  V30 8 2 8 9
M  V30 9 1 9 10
M  V30 10 2 10 11
M  V30 11 1 11 12
M  V30 12 3 12 13
M  V30 13 1 13 14
M  V30 14 2 14 15
M  V30 15 1 15 16
M  V30 16 2 16 17
M  V30 17 1 17 18
M  V30 18 3 18 19
M  V30 19 1 19 20
M  V30 20 2 20 21
M  V30 21 1 21 22
M  V30 22 2 22 23
M  V30 23 1 23 24
M  V30 24 1 24 25
M  V30 25 1 25 26
M  V30 26 2 26 27
M  V30 27 1 27 28
M  V30 28 2 28 29
M  V30 29 1 29 30
M  V30 30 1 26 31
M  V30 31 2 31 32
M  V30 32 1 32 33
M  V30 33 1 23 34
M  V30 34 2 34 35
M  V30 35 1 17 36
M  V30 36 1 11 37
M  V30 37 2 37 38
M  V30 38 2 3 39
M  V30 39 1 39 40
M  V30 40 2 40 41
M  V30 41 1 41 1
M  V30 42 1 7 2
M  V30 43 1 38 8
M  V30 44 1 36 14
M  V30 45 1 35 20
M  V30 46 2 33 24
M  V30 47 2 30 25
M  V30 48 1 1 42
M  V30 49 1 5 43
M  V30 50 1 6 44
M  V30 51 1 7 45
M  V30 52 1 9 46
M  V30 53 1 10 47
M  V30 54 1 15 48
M  V30 55 1 16 49
M  V30 56 1 21 50
M  V30 57 1 22 51
M  V30 58 1 27 52
M  V30 59 1 28 53
M  V30 60 1 30 54
M  V30 61 1 31 55
M  V30 62 1 32 56
M  V30 63 1 33 57
M  V30 64 1 34 58
M  V30 65 1 35 59
M  V30 66 1 37 60
M  V30 67 1 38 61
M  V30 68 1 39 62
M  V30 69 1 41 63
M  V30 END BOND
M  V30 END CTAB
M  END

$$$$
