
     RDKit          3D

  0  0  0  0  0  0  0  0  0  0999 V3000
M  V30 BEGIN CTAB
M  V30 COUNTS 63 69 0 0 0
M  V30 BEGIN ATOM
M  V30 1 C 12.4201 1.5447 2.0038 0
M  V30 2 C 11.6207 0.4930 1.5370 0
M  V30 3 C 10.2358 0.7045 1.3156 0
M  V30 4 C 9.4349 -0.3653 0.8372 0
M  V30 5 C 10.0240 -1.6223 0.6230 0
M  V30 6 C 11.3862 -1.8196 0.8501 0
M  V30 7 C 12.1842 -0.7680 1.2981 0
M  V30 8 C 7.9942 -0.2068 0.5348 0
M  V30 9 C 7.5725 0.6742 -0.4746 0
M  V30 10 C 6.2129 0.8058 -0.7726 0
M  V30 11 C 5.2642 0.0509 -0.0715 0
M  V30 12 C 3.8648 0.1860 -0.3785 0
M  V30 13 C 2.6923 0.2982 -0.6347 0
M  V30 14 C 1.2956 0.4304 -0.9386 0
M  V30 15 C 0.7710 1.0439 -2.0681 0
M  V30 16 C -0.6282 1.0225 -2.0998 0
M  V30 17 C -1.1844 0.3923 -0.9948 0
M  V30 18 C -2.5888 0.2187 -0.7535 0
M  V30 19 C -3.7677 0.0720 -0.5494 0
M  V30 20 C -5.1747 -0.1039 -0.3041 0
M  V30 21 C -5.6596 -1.3391 0.1437 0
M  V30 22 C -7.0262 -1.5102 0.3848 0
M  V30 23 C -7.9210 -0.4496 0.1711 0
M  V30 24 C -9.3641 -0.6259 0.4521 0
M  V30 25 C -10.3596 -0.4817 -0.5495 0
M  V30 26 C -11.7269 -0.6160 -0.1972 0
M  V30 27 C -12.7167 -0.4693 -1.1779 0
M  V30 28 C -12.3441 -0.2068 -2.4953 0
M  V30 29 N -11.0314 -0.1027 -2.8253 0
M  V30 30 C -10.0436 -0.2350 -1.9012 0
M  V30 31 C -12.0846 -0.9043 1.1271 0
M  V30 32 C -11.0997 -1.0670 2.1002 0
M  V30 33 C -9.7519 -0.9310 1.7673 0
M  V30 34 C -7.4279 0.7911 -0.2651 0
M  V30 35 C -6.0613 0.9612 -0.5064 0
M  V30 36 S 0.0416 -0.1407 0.0245 0
M  V30 37 C 5.6808 -0.8391 0.9264 0
M  V30 38 C 7.0403 -0.9711 1.2253 0
M  V30 39 C 9.7031 1.9762 1.6100 0
M  V30 40 N 10.5094 2.9709 2.0655 0
M  V30 41 C 11.8403 2.7862 2.2597 0
M  V30 42 H 13.4811 1.4065 2.1742 0
M  V30 43 H 9.4273 -2.4510 0.2610 0
M  V30 44 H 11.8266 -2.7922 0.6722 0
M  V30 45 H 13.2406 -0.9421 1.4652 0
M  V30 46 H 8.2973 1.2562 -1.0306 0
M  V30 47 H 5.9020 1.4926 -1.5506 0
M  V30 48 H 1.3770 1.4927 -2.8446 0
M  V30 49 H -1.2119 1.4530 -2.9033 0
M  V30 50 H -4.9818 -2.1682 0.3078 0
M  V30 51 H -7.3884 -2.4702 0.7320 0
M  V30 52 H -13.7673 -0.5620 -0.9293 0
M  V30 53 H -13.1008 -0.0939 -3.2601 0
M  V30 54 H -9.0186 -0.1592 -2.2352 0
M  V30 55 H -13.1257 -1.0112 1.4079 0
M  V30 56 H -11.3825 -1.2942 3.1201 0
M  V30 57 H -9.0056 -1.0474 2.5441 0
M  V30 58 H -8.1020 1.6256 -0.4151 0
M  V30 59 H -5.6959 1.9227 -0.8465 0
M  V30 60 H 4.9554 -1.4310 1.4718 0
M  V30 61 H 7.3495 -1.6633 1.9989 0
M  V30 62 H 8.6491 2.1856 1.4953 0
M  V30 63 H 12.4486 3.6039 2.6225 0
M  V30 END ATOM
M  V30 BEGIN BOND
M  V30 1 2 1 2
M  V30 2 1 2 3
M  V30 3 1 3 4
M  V30 4 2 4 5
M  V30 5 1 5 6
M  V30 6 2 6 7
M  V30 7 1 4 8
M  V30 8 2 8 9
M  V30 9 1 9 10
M  V30 10 2 10 11
M  V30 11 1 11 12
M  V30 12 3 12 13
M  V30 13 1 13 14
M  V30 14 2 14 15
M  V30 15 1 15 16
M  V30 16 2 16 17
M  V30 17 1 17 18
M  V30 18 3 18 19
M  V30 19 1 19 20
M  V30 20 2 20 21
M  V30 21 1 21 22
M  V30 22 2 22 23
M  V30 23 1 23 24
M  V30 24 1 24 25
M  V30 25 1 25 26
M  V30 26 2 26 27
M  V30 27 1 27 28
M  V30 28 2 28 29
M  V30 29 1 29 30
M  V30 30 1 26 31
M  V30 31 2 31 32
M  V30 32 1 32 33
M  V30 33 1 23 34
M  V30 34 2 34 35
M  V30 35 1 17 36
M  V30 36 1 11 37
M  V30 37 2 37 38
M  V30 38 2 3 39
M  V30 39 1 39 40
M  V30 40 2 40 41
M  V30 41 1 41 1
M  V30 42 1 7 2
M  V30 43 1 38 8
M  V30 44 1 36 14
M  V30 45 1 35 20
M  V30 46 2 33 24
M  V30 47 2 30 25
M  V30 48 1 1 42
M  V30 49 1 5 43
M  V30 50 1 6 44
M  V30 51 1 7 45
M  V30 52 1 9 46
M  V30 53 1 10 47
M  V30 54 1 15 48
M  V30 55 1 16 49
M  V30 56 1 21 50
M  V30 57 1 22 51
M  V30 58 1 27 52
M  V30 59 1 28 53
M  V30 60 1 30 54
M  V30 61 1 31 55
M  V30 62 1 32 56
M  V30 63 1 33 57
M  V30 64 1 34 58
M  V30 65 1 35 59
M  V30 66 1 37 60
M  V30 67 1 38 61
M  V30 68 1 39 62
M  V30 69 1 41 63
M  V30 END BOND
M  V30 END CTAB
M  END

$$$$
