
     RDKit          3D

  0  0  0  0  0  0  0  0  0  0999 V3000
M  V30 BEGIN CTAB
M  V30 COUNTS 63 69 0 0 0
M  V30 BEGIN ATOM
M  V30 1 C -12.0742 -2.6698 -1.6323 0
M  V30 2 C -11.4492 -1.4755 -1.2497 0
M  V30 3 C -10.0753 -1.4797 -0.8982 0
M  V30 4 C -9.4496 -0.2644 -0.5159 0
M  V30 5 C -10.2111 0.9143 -0.4642 0
M  V30 6 C -11.5632 0.9050 -0.8074 0
M  V30 7 C -12.1803 -0.2806 -1.2045 0
M  V30 8 C -8.0096 -0.1829 -0.1834 0
M  V30 9 C -7.6026 0.2208 1.0981 0
M  V30 10 C -6.2421 0.3148 1.4086 0
M  V30 11 C -5.2779 0.0154 0.4378 0
M  V30 12 C -3.8778 0.1056 0.7572 0
M  V30 13 C -2.7031 0.1768 1.0171 0
M  V30 14 C -1.3014 0.2559 1.3158 0
M  V30 15 C -0.7494 0.3747 2.5848 0
M  V30 16 C 0.6500 0.4259 2.5674 0
M  V30 17 C 1.1781 0.3414 1.2862 0
M  V30 18 C 2.5742 0.3608 0.9527 0
M  V30 19 C 3.7431 0.3725 0.6592 0
M  V30 20 C 5.1348 0.3826 0.2934 0
M  V30 21 C 5.5197 0.8229 -0.9791 0
M  V30 22 C 6.8690 0.8184 -1.3444 0
M  V30 23 C 7.8467 0.3811 -0.4372 0
M  V30 24 C 9.2706 0.3417 -0.8424 0
M  V30 25 C 10.2762 1.0903 -0.1757 0
M  V30 26 C 11.6254 0.9752 -0.5976 0
M  V30 27 C 12.6239 1.7123 0.0527 0
M  V30 28 C 12.2772 2.5614 1.1025 0
M  V30 29 N 10.9811 2.6749 1.4878 0
M  V30 30 C 9.9852 1.9759 0.8819 0
M  V30 31 C 11.9555 0.1336 -1.6688 0
M  V30 32 C 10.9602 -0.5848 -2.3296 0
M  V30 33 C 9.6294 -0.4797 -1.9240 0
M  V30 34 C 7.4549 -0.0694 0.8343 0
M  V30 35 C 6.1050 -0.0637 1.1994 0
M  V30 36 S -0.0722 0.2126 0.1700 0
M  V30 37 C -5.6791 -0.3734 -0.8464 0
M  V30 38 C -7.0389 -0.4679 -1.1575 0
M  V30 39 C -9.3887 -2.7109 -0.9184 0
M  V30 40 N -10.0297 -3.8497 -1.2913 0
M  V30 41 C -11.3391 -3.8541 -1.6497 0
M  V30 42 H -13.1215 -2.6879 -1.9098 0
M  V30 43 H -9.7500 1.8506 -0.1733 0
M  V30 44 H -12.1347 1.8236 -0.7711 0
M  V30 45 H -13.2309 -0.2649 -1.4699 0
M  V30 46 H -8.3389 0.4548 1.8573 0
M  V30 47 H -5.9425 0.6206 2.4038 0
M  V30 48 H -1.3356 0.4228 3.4935 0
M  V30 49 H 1.2532 0.5177 3.4614 0
M  V30 50 H 4.7766 1.1643 -1.6899 0
M  V30 51 H 7.1528 1.1577 -2.3331 0
M  V30 52 H 13.6619 1.6348 -0.2500 0
M  V30 53 H 13.0417 3.1340 1.6106 0
M  V30 54 H 8.9721 2.1303 1.2247 0
M  V30 55 H 12.9829 0.0367 -1.9997 0
M  V30 56 H 11.2209 -1.2292 -3.1596 0
M  V30 57 H 8.8749 -1.0561 -2.4467 0
M  V30 58 H 8.1947 -0.4300 1.5384 0
M  V30 59 H 5.8176 -0.4141 2.1834 0
M  V30 60 H -4.9414 -0.6012 -1.6065 0
M  V30 61 H -7.3367 -0.7620 -2.1565 0
M  V30 62 H -8.3499 -2.7812 -0.6285 0
M  V30 63 H -11.8128 -4.7818 -1.9419 0
M  V30 END ATOM
M  V30 BEGIN BOND
M  V30 1 2 1 2
M  V30 2 1 2 3
M  V30 3 1 3 4
M  V30 4 2 4 5
M  V30 5 1 5 6
M  V30 6 2 6 7
M  V30 7 1 4 8
M  V30 8 2 8 9
M  V30 9 1 9 10
M  V30 10 2 10 11
M  V30 11 1 11 12
M  V30 12 3 12 13
M  V30 13 1 13 14
M  V30 14 2 14 15
M  V30 15 1 15 16
M  V30 16 2 16 17
M  V30 17 1 17 18
M  V30 18 3 18 19
M  V30 19 1 19 20
M  V30 20 2 20 21
M  V30 21 1 21 22
M  V30 22 2 22 23
M  V30 23 1 23 24
M  V30 24 1 24 25
M  V30 25 1 25 26
M  V30 26 2 26 27
M  V30 27 1 27 28
M  V30 28 2 28 29
M  V30 29 1 29 30
M  V30 30 1 26 31
M  V30 31 2 31 32
M  V30 32 1 32 33
M  V30 33 1 23 34
M  V30 34 2 34 35
M  V30 35 1 17 36
M  V30 36 1 11 37
M  V30 37 2 37 38
M  V30 38 2 3 39
M  V30 39 1 39 40
M  V30 40 2 40 41
M  V30 41 1 41 1
M  V30 42 1 7 2
M  V30 43 1 38 8
M  V30 44 1 36 14
M  V30 45 1 35 20
M  V30 46 2 33 24
M  V30 47 2 30 25
M  V30 48 1 1 42
M  V30 49 1 5 43
M  V30 50 1 6 44
M  V30 51 1 7 45
M  V30 52 1 9 46
M  V30 53 1 10 47
M  V30 54 1 15 48
M  V30 55 1 16 49
M  V30 56 1 21 50
M  V30 57 1 22 51
M  V30 58 1 27 52
M  V30 59 1 28 53
M  V30 60 1 30 54
M  V30 61 1 31 55
M  V30 62 1 32 56
M  V30 63 1 33 57
M  V30 64 1 34 58
M  V30 65 1 35 59
M  V30 66 1 37 60
M  V30 67 1 38 61
M  V30 68 1 39 62
M  V30 69 1 41 63
M  V30 END BOND
M  V30 END CTAB
M  END

$$$$
