
     RDKit          3D

  0  0  0  0  0  0  0  0  0  0999 V3000
M  V30 BEGIN CTAB
M  V30 COUNTS 63 69 0 0 0
M  V30 BEGIN ATOM
M  V30 1 C -12.4240 1.5801 0.1037 0
M  V30 2 C -11.5202 0.9414 0.9630 0
M  V30 3 C -10.1935 0.6887 0.5297 0
M  V30 4 C -9.2833 0.0461 1.4091 0
M  V30 5 C -9.7243 -0.3560 2.6807 0
M  V30 6 C -11.0334 -0.1072 3.0934 0
M  V30 7 C -11.9269 0.5438 2.2441 0
M  V30 8 C -7.8701 -0.2057 1.0463 0
M  V30 9 C -6.9999 0.8668 0.7910 0
M  V30 10 C -5.6606 0.6266 0.4696 0
M  V30 11 C -5.1773 -0.6865 0.4104 0
M  V30 12 C -3.7986 -0.9333 0.0803 0
M  V30 13 C -2.6437 -1.1402 -0.1960 0
M  V30 14 C -1.2683 -1.3867 -0.5249 0
M  V30 15 C -0.8135 -2.3439 -1.4220 0
M  V30 16 C 0.5810 -2.3590 -1.5425 0
M  V30 17 C 1.2034 -1.4135 -0.7385 0
M  V30 18 C 2.6198 -1.1972 -0.6510 0
M  V30 19 C 3.8091 -1.0156 -0.5773 0
M  V30 20 C 5.2290 -0.7987 -0.4890 0
M  V30 21 C 6.1102 -1.6196 -1.2038 0
M  V30 22 C 7.4899 -1.4097 -1.1179 0
M  V30 23 C 7.9996 -0.3706 -0.3232 0
M  V30 24 C 9.4619 -0.1650 -0.2154 0
M  V30 25 C 10.0945 1.0396 -0.6198 0
M  V30 26 C 11.4939 1.1857 -0.4409 0
M  V30 27 C 12.1259 2.3735 -0.8318 0
M  V30 28 C 11.3720 3.3950 -1.4072 0
M  V30 29 N 10.0368 3.2354 -1.5940 0
M  V30 30 C 9.3883 2.0998 -1.2240 0
M  V30 31 C 12.2422 0.1399 0.1167 0
M  V30 32 C 11.6169 -1.0488 0.4901 0
M  V30 33 C 10.2402 -1.2021 0.3247 0
M  V30 34 C 7.1124 0.4411 0.4025 0
M  V30 35 C 5.7329 0.2307 0.3157 0
M  V30 36 S 0.0420 -0.5561 0.1231 0
M  V30 37 C -6.0377 -1.7587 0.6777 0
M  V30 38 C -7.3774 -1.5195 0.9989 0
M  V30 39 C -9.8402 1.0670 -0.7817 0
M  V30 40 N -10.7457 1.6810 -1.5879 0
M  V30 41 C -12.0115 1.9477 -1.1760 0
M  V30 42 H -13.4404 1.7878 0.4166 0
M  V30 43 H -9.0440 -0.8505 3.3639 0
M  V30 44 H -11.3553 -0.4160 4.0796 0
M  V30 45 H -12.9384 0.7298 2.5857 0
M  V30 46 H -7.3593 1.8873 0.8432 0
M  V30 47 H -5.0020 1.4636 0.2707 0
M  V30 48 H -1.4655 -3.0102 -1.9720 0
M  V30 49 H 1.1145 -3.0381 -2.1950 0
M  V30 50 H 5.7309 -2.4216 -1.8259 0
M  V30 51 H 8.1609 -2.0519 -1.6753 0
M  V30 52 H 13.1929 2.5082 -0.6989 0
M  V30 53 H 11.8511 4.3150 -1.7144 0
M  V30 54 H 8.3274 2.0312 -1.4185 0
M  V30 55 H 13.3122 0.2391 0.2567 0
M  V30 56 H 12.2013 -1.8544 0.9157 0
M  V30 57 H 9.7746 -2.1296 0.6359 0
M  V30 58 H 7.4902 1.2343 1.0361 0
M  V30 59 H 5.0604 0.8676 0.8777 0
M  V30 60 H -5.6730 -2.7781 0.6388 0
M  V30 61 H -8.0325 -2.3573 1.2040 0
M  V30 62 H -8.8550 0.8679 -1.1791 0
M  V30 63 H -12.7025 2.4393 -1.8478 0
M  V30 END ATOM
M  V30 BEGIN BOND
M  V30 1 2 1 2
M  V30 2 1 2 3
M  V30 3 1 3 4
M  V30 4 2 4 5
M  V30 5 1 5 6
M  V30 6 2 6 7
M  V30 7 1 4 8
M  V30 8 2 8 9
M  V30 9 1 9 10
M  V30 10 2 10 11
M  V30 11 1 11 12
M  V30 12 3 12 13
M  V30 13 1 13 14
M  V30 14 2 14 15
M  V30 15 1 15 16
M  V30 16 2 16 17
M  V30 17 1 17 18
M  V30 18 3 18 19
M  V30 19 1 19 20
M  V30 20 2 20 21
M  V30 21 1 21 22
M  V30 22 2 22 23
M  V30 23 1 23 24
M  V30 24 1 24 25
M  V30 25 1 25 26
M  V30 26 2 26 27
M  V30 27 1 27 28
M  V30 28 2 28 29
M  V30 29 1 29 30
M  V30 30 1 26 31
M  V30 31 2 31 32
M  V30 32 1 32 33
M  V30 33 1 23 34
M  V30 34 2 34 35
M  V30 35 1 17 36
M  V30 36 1 11 37
M  V30 37 2 37 38
M  V30 38 2 3 39
M  V30 39 1 39 40
M  V30 40 2 40 41
M  V30 41 1 41 1
M  V30 42 1 7 2
M  V30 43 1 38 8
M  V30 44 1 36 14
M  V30 45 1 35 20
M  V30 46 2 33 24
M  V30 47 2 30 25
M  V30 48 1 1 42
M  V30 49 1 5 43
M  V30 50 1 6 44
M  V30 51 1 7 45
M  V30 52 1 9 46
M  V30 53 1 10 47
M  V30 54 1 15 48
M  V30 55 1 16 49
M  V30 56 1 21 50
M  V30 57 1 22 51
M  V30 58 1 27 52
M  V30 59 1 28 53
M  V30 60 1 30 54
M  V30 61 1 31 55
M  V30 62 1 32 56
M  V30 63 1 33 57
M  V30 64 1 34 58
M  V30 65 1 35 59
M  V30 66 1 37 60
M  V30 67 1 38 61
M  V30 68 1 39 62
M  V30 69 1 41 63
M  V30 END BOND
M  V30 END CTAB
M  END

$$$$
