
     RDKit          3D

  0  0  0  0  0  0  0  0  0  0999 V3000
M  V30 BEGIN CTAB
M  V30 COUNTS 63 69 0 0 0
M  V30 BEGIN ATOM
M  V30 1 C -12.6761 -0.3676 1.2752 0
M  V30 2 C -11.6736 -0.6938 0.3524 0
M  V30 3 C -10.3173 -0.4086 0.6544 0
M  V30 4 C -9.3090 -0.7373 -0.2892 0
M  V30 5 C -9.6716 -1.3687 -1.4904 0
M  V30 6 C -11.0084 -1.6496 -1.7734 0
M  V30 7 C -12.0069 -1.3091 -0.8621 0
M  V30 8 C -7.8791 -0.4238 -0.0671 0
M  V30 9 C -6.9292 -1.4567 -0.0217 0
M  V30 10 C -5.5754 -1.1615 0.1659 0
M  V30 11 C -5.1586 0.1688 0.3005 0
M  V30 12 C -3.7652 0.4720 0.4933 0
M  V30 13 C -2.5980 0.7261 0.6548 0
M  V30 14 C -1.2080 1.0287 0.8470 0
M  V30 15 C -0.7103 2.1096 1.5623 0
M  V30 16 C 0.6887 2.1529 1.5814 0
M  V30 17 C 1.2716 1.1054 0.8809 0
M  V30 18 C 2.6824 0.8895 0.7268 0
M  V30 19 C 3.8670 0.7082 0.5972 0
M  V30 20 C 5.2812 0.4917 0.4421 0
M  V30 21 C 5.7470 -0.6245 -0.2637 0
M  V30 22 C 7.1209 -0.8351 -0.4146 0
M  V30 23 C 8.0410 0.0750 0.1311 0
M  V30 24 C 9.4967 -0.1570 -0.0078 0
M  V30 25 C 10.1463 -0.1921 -1.2694 0
M  V30 26 C 11.5360 -0.4691 -1.3299 0
M  V30 27 C 12.1845 -0.5113 -2.5712 0
M  V30 28 C 11.4569 -0.2655 -3.7345 0
M  V30 29 N 10.1317 0.0205 -3.6629 0
M  V30 30 C 9.4677 0.0663 -2.4779 0
M  V30 31 C 12.2588 -0.6900 -0.1495 0
M  V30 32 C 11.6178 -0.6310 1.0871 0
M  V30 33 C 10.2502 -0.3655 1.1591 0
M  V30 34 C 7.5690 1.1851 0.8494 0
M  V30 35 C 6.1948 1.3948 1.0001 0
M  V30 36 S 0.0696 0.1228 0.2357 0
M  V30 37 C -6.1005 1.2035 0.2424 0
M  V30 38 C -7.4543 0.9094 0.0544 0
M  V30 39 C -10.0236 0.1711 1.9055 0
M  V30 40 N -11.0230 0.4697 2.7768 0
M  V30 41 C -12.3264 0.2218 2.4891 0
M  V30 42 H -13.7189 -0.5713 1.0622 0
M  V30 43 H -8.9150 -1.6294 -2.2208 0
M  V30 44 H -11.2722 -2.1290 -2.7073 0
M  V30 45 H -13.0393 -1.5335 -1.1031 0
M  V30 46 H -7.2386 -2.4896 -0.1249 0
M  V30 47 H -4.8544 -1.9693 0.2049 0
M  V30 48 H -1.3350 2.8437 2.0546 0
M  V30 49 H 1.2532 2.9238 2.0900 0
M  V30 50 H 5.0490 -1.3325 -0.6941 0
M  V30 51 H 7.4688 -1.7075 -0.9543 0
M  V30 52 H 13.2442 -0.7267 -2.6406 0
M  V30 53 H 11.9489 -0.2935 -4.6975 0
M  V30 54 H 8.4168 0.3183 -2.4910 0
M  V30 55 H 13.3212 -0.9006 -0.1830 0
M  V30 56 H 12.1828 -0.7977 1.9952 0
M  V30 57 H 9.7715 -0.3391 2.1307 0
M  V30 58 H 8.2652 1.8907 1.2860 0
M  V30 59 H 5.8450 2.2593 1.5516 0
M  V30 60 H -5.7881 2.2364 0.3392 0
M  V30 61 H -8.1718 1.7192 0.0013 0
M  V30 62 H -9.0060 0.3777 2.2055 0
M  V30 63 H -13.0929 0.4754 3.2091 0
M  V30 END ATOM
M  V30 BEGIN BOND
M  V30 1 2 1 2
M  V30 2 1 2 3
M  V30 3 1 3 4
M  V30 4 2 4 5
M  V30 5 1 5 6
M  V30 6 2 6 7
M  V30 7 1 4 8
M  V30 8 2 8 9
M  V30 9 1 9 10
M  V30 10 2 10 11
M  V30 11 1 11 12
M  V30 12 3 12 13
M  V30 13 1 13 14
M  V30 14 2 14 15
M  V30 15 1 15 16
M  V30 16 2 16 17
M  V30 17 1 17 18
M  V30 18 3 18 19
M  V30 19 1 19 20
M  V30 20 2 20 21
M  V30 21 1 21 22
M  V30 22 2 22 23
M  V30 23 1 23 24
M  V30 24 1 24 25
M  V30 25 1 25 26
M  V30 26 2 26 27
M  V30 27 1 27 28
M  V30 28 2 28 29
M  V30 29 1 29 30
M  V30 30 1 26 31
M  V30 31 2 31 32
M  V30 32 1 32 33
M  V30 33 1 23 34
M  V30 34 2 34 35
M  V30 35 1 17 36
M  V30 36 1 11 37
M  V30 37 2 37 38
M  V30 38 2 3 39
M  V30 39 1 39 40
M  V30 40 2 40 41
M  V30 41 1 41 1
M  V30 42 1 7 2
M  V30 43 1 38 8
M  V30 44 1 36 14
M  V30 45 1 35 20
M  V30 46 2 33 24
M  V30 47 2 30 25
M  V30 48 1 1 42
M  V30 49 1 5 43
M  V30 50 1 6 44
M  V30 51 1 7 45
M  V30 52 1 9 46
M  V30 53 1 10 47
M  V30 54 1 15 48
M  V30 55 1 16 49
M  V30 56 1 21 50
M  V30 57 1 22 51
M  V30 58 1 27 52
M  V30 59 1 28 53
M  V30 60 1 30 54
M  V30 61 1 31 55
M  V30 62 1 32 56
M  V30 63 1 33 57
M  V30 64 1 34 58
M  V30 65 1 35 59
M  V30 66 1 37 60
M  V30 67 1 38 61
M  V30 68 1 39 62
M  V30 69 1 41 63
M  V30 END BOND
M  V30 END CTAB
M  END

$$$$
