
     RDKit          3D

  0  0  0  0  0  0  0  0  0  0999 V3000
M  V30 BEGIN CTAB
M  V30 COUNTS 63 69 0 0 0
M  V30 BEGIN ATOM
M  V30 1 C 12.2881 -1.4770 -0.3267 0
M  V30 2 C 11.5908 -0.2666 -0.2185 0
M  V30 3 C 10.1727 -0.2698 -0.1904 0
M  V30 4 C 9.4749 0.9609 -0.0748 0
M  V30 5 C 10.2027 2.1612 -0.0230 0
M  V30 6 C 11.5973 2.1519 -0.0576 0
M  V30 7 C 12.2906 0.9459 -0.1479 0
M  V30 8 C 7.9986 1.0332 0.0120 0
M  V30 9 C 7.2677 1.7283 -0.9646 0
M  V30 10 C 5.8752 1.8163 -0.8730 0
M  V30 11 C 5.2027 1.2183 0.2001 0
M  V30 12 C 3.7696 1.3092 0.2938 0
M  V30 13 C 2.5692 1.3851 0.3723 0
M  V30 14 C 1.1395 1.4751 0.4660 0
M  V30 15 C 0.4330 2.5424 1.0040 0
M  V30 16 C -0.9535 2.3543 0.9631 0
M  V30 17 C -1.3180 1.1417 0.3935 0
M  V30 18 C -2.6642 0.6752 0.2178 0
M  V30 19 C -3.7945 0.2833 0.0704 0
M  V30 20 C -5.1439 -0.1846 -0.1056 0
M  V30 21 C -5.5981 -0.5549 -1.3775 0
M  V30 22 C -6.9091 -1.0100 -1.5490 0
M  V30 23 C -7.7799 -1.0897 -0.4507 0
M  V30 24 C -9.1604 -1.5938 -0.6308 0
M  V30 25 C -10.3043 -0.8055 -0.3395 0
M  V30 26 C -11.5965 -1.3711 -0.4884 0
M  V30 27 C -12.7311 -0.6022 -0.1977 0
M  V30 28 C -12.5765 0.7182 0.2216 0
M  V30 29 N -11.3356 1.2560 0.3391 0
M  V30 30 C -10.2119 0.5404 0.0702 0
M  V30 31 C -11.7361 -2.6925 -0.9344 0
M  V30 32 C -10.6083 -3.4526 -1.2403 0
M  V30 33 C -9.3320 -2.9094 -1.0921 0
M  V30 34 C -7.3153 -0.7303 0.8251 0
M  V30 35 C -6.0045 -0.2750 0.9955 0
M  V30 36 S 0.0625 0.2969 -0.0616 0
M  V30 37 C 5.9284 0.5353 1.1840 0
M  V30 38 C 7.3208 0.4471 1.0935 0
M  V30 39 C 9.5093 -1.5082 -0.3074 0
M  V30 40 N 10.2200 -2.6617 -0.4149 0
M  V30 41 C 11.5775 -2.6725 -0.4204 0
M  V30 42 H 13.3714 -1.4978 -0.3441 0
M  V30 43 H 9.6866 3.1100 0.0622 0
M  V30 44 H 12.1436 3.0850 -0.0083 0
M  V30 45 H 13.3739 0.9610 -0.1702 0
M  V30 46 H 7.7760 2.1955 -1.7992 0
M  V30 47 H 5.3238 2.3507 -1.6374 0
M  V30 48 H 0.9015 3.4283 1.4131 0
M  V30 49 H -1.6636 3.0803 1.3374 0
M  V30 50 H -4.9392 -0.4929 -2.2353 0
M  V30 51 H -7.2480 -1.2938 -2.5379 0
M  V30 52 H -13.7273 -1.0163 -0.2990 0
M  V30 53 H -13.4465 1.3207 0.4463 0
M  V30 54 H -9.2561 1.0355 0.1662 0
M  V30 55 H -12.7181 -3.1349 -1.0537 0
M  V30 56 H -10.7232 -4.4709 -1.5889 0
M  V30 57 H -8.4702 -3.5246 -1.3222 0
M  V30 58 H -7.9682 -0.8052 1.6863 0
M  V30 59 H -5.6614 0.0031 1.9849 0
M  V30 60 H 5.4186 0.0743 2.0215 0
M  V30 61 H 7.8716 -0.0754 1.8661 0
M  V30 62 H 8.4305 -1.5695 -0.3283 0
M  V30 63 H 12.1067 -3.6121 -0.5066 0
M  V30 END ATOM
M  V30 BEGIN BOND
M  V30 1 2 1 2
M  V30 2 1 2 3
M  V30 3 1 3 4
M  V30 4 2 4 5
M  V30 5 1 5 6
M  V30 6 2 6 7
M  V30 7 1 4 8
M  V30 8 2 8 9
M  V30 9 1 9 10
M  V30 10 2 10 11
M  V30 11 1 11 12
M  V30 12 3 12 13
M  V30 13 1 13 14
M  V30 14 2 14 15
M  V30 15 1 15 16
M  V30 16 2 16 17
M  V30 17 1 17 18
M  V30 18 3 18 19
M  V30 19 1 19 20
M  V30 20 2 20 21
M  V30 21 1 21 22
M  V30 22 2 22 23
M  V30 23 1 23 24
M  V30 24 1 24 25
M  V30 25 1 25 26
M  V30 26 2 26 27
M  V30 27 1 27 28
M  V30 28 2 28 29
M  V30 29 1 29 30
M  V30 30 1 26 31
M  V30 31 2 31 32
M  V30 32 1 32 33
M  V30 33 1 23 34
M  V30 34 2 34 35
M  V30 35 1 17 36
M  V30 36 1 11 37
M  V30 37 2 37 38
M  V30 38 2 3 39
M  V30 39 1 39 40
M  V30 40 2 40 41
M  V30 41 1 41 1
M  V30 42 1 7 2
M  V30 43 1 38 8
M  V30 44 1 36 14
M  V30 45 1 35 20
M  V30 46 2 33 24
M  V30 47 2 30 25
M  V30 48 1 1 42
M  V30 49 1 5 43
M  V30 50 1 6 44
M  V30 51 1 7 45
M  V30 52 1 9 46
M  V30 53 1 10 47
M  V30 54 1 15 48
M  V30 55 1 16 49
M  V30 56 1 21 50
M  V30 57 1 22 51
M  V30 58 1 27 52
M  V30 59 1 28 53
M  V30 60 1 30 54
M  V30 61 1 31 55
M  V30 62 1 32 56
M  V30 63 1 33 57
M  V30 64 1 34 58
M  V30 65 1 35 59
M  V30 66 1 37 60
M  V30 67 1 38 61
M  V30 68 1 39 62
M  V30 69 1 41 63
M  V30 END BOND
M  V30 END CTAB
M  END

$$$$
