
     RDKit          3D

  0  0  0  0  0  0  0  0  0  0999 V3000
M  V30 BEGIN CTAB
M  V30 COUNTS 63 69 0 0 0
M  V30 BEGIN ATOM
M  V30 1 C -12.0194 -1.1823 -1.9383 0
M  V30 2 C -11.4443 -0.3690 -0.9527 0
M  V30 3 C -10.0334 -0.3020 -0.8301 0
M  V30 4 C -9.4605 0.5276 0.1674 0
M  V30 5 C -10.2984 1.2820 1.0018 0
M  V30 6 C -11.6837 1.2077 0.8719 0
M  V30 7 C -12.2573 0.3855 -0.0972 0
M  V30 8 C -7.9988 0.6300 0.3687 0
M  V30 9 C -7.3421 1.8554 0.1679 0
M  V30 10 C -5.9616 1.9561 0.3706 0
M  V30 11 C -5.2276 0.8342 0.7839 0
M  V30 12 C -3.8055 0.9373 0.9766 0
M  V30 13 C -2.6132 1.0302 1.1226 0
M  V30 14 C -1.1916 1.1461 1.2753 0
M  V30 15 C -0.5367 2.0569 2.0937 0
M  V30 16 C 0.8579 1.9764 1.9938 0
M  V30 17 C 1.2779 1.0062 1.0955 0
M  V30 18 C 2.6428 0.7277 0.7499 0
M  V30 19 C 3.7863 0.5002 0.4465 0
M  V30 20 C 5.1492 0.2374 0.0692 0
M  V30 21 C 5.6835 -1.0491 0.2163 0
M  V30 22 C 6.9996 -1.3094 -0.1757 0
M  V30 23 C 7.7945 -0.2823 -0.7101 0
M  V30 24 C 9.1756 -0.5676 -1.1619 0
M  V30 25 C 10.2009 -0.9686 -0.2678 0
M  V30 26 C 11.4887 -1.2794 -0.7771 0
M  V30 27 C 12.5048 -1.6877 0.0971 0
M  V30 28 C 12.2404 -1.7655 1.4640 0
M  V30 29 N 11.0118 -1.4378 1.9429 0
M  V30 30 C 10.0019 -1.0461 1.1241 0
M  V30 31 C 11.7424 -1.1708 -2.1517 0
M  V30 32 C 10.7382 -0.7458 -3.0200 0
M  V30 33 C 9.4656 -0.4497 -2.5317 0
M  V30 34 C 7.2537 1.0049 -0.8558 0
M  V30 35 C 5.9381 1.2652 -0.4630 0
M  V30 36 S -0.0611 0.2489 0.4195 0
M  V30 37 C -5.8800 -0.3859 0.9986 0
M  V30 38 C -7.2608 -0.4874 0.7947 0
M  V30 39 C -9.2504 -1.0506 -1.7345 0
M  V30 40 N -9.8440 -1.8236 -2.6803 0
M  V30 41 C -11.1938 -1.9078 -2.7971 0
M  V30 42 H -13.0955 -1.2479 -2.0510 0
M  V30 43 H -9.8757 1.9207 1.7688 0
M  V30 44 H -12.3158 1.7900 1.5276 0
M  V30 45 H -13.3354 0.3467 -0.1815 0
M  V30 46 H -7.8956 2.7306 -0.1522 0
M  V30 47 H -5.4670 2.9061 0.1988 0
M  V30 48 H -1.0472 2.7570 2.7443 0
M  V30 49 H 1.5341 2.6053 2.5590 0
M  V30 50 H 5.0788 -1.8499 0.6256 0
M  V30 51 H 7.3970 -2.3122 -0.0749 0
M  V30 52 H 13.4921 -1.9414 -0.2727 0
M  V30 53 H 13.0181 -2.0771 2.1479 0
M  V30 54 H 9.0492 -0.7928 1.5723 0
M  V30 55 H 12.7194 -1.4063 -2.5543 0
M  V30 56 H 10.9437 -0.6564 -4.0808 0
M  V30 57 H 8.6964 -0.1387 -3.2284 0
M  V30 58 H 7.8512 1.8033 -1.2730 0
M  V30 59 H 5.5360 2.2653 -0.5801 0
M  V30 60 H -5.3223 -1.2605 1.3207 0
M  V30 61 H -7.7543 -1.4363 0.9642 0
M  V30 62 H -8.1696 -1.0167 -1.7095 0
M  V30 63 H -11.6271 -2.5364 -3.5637 0
M  V30 END ATOM
M  V30 BEGIN BOND
M  V30 1 2 1 2
M  V30 2 1 2 3
M  V30 3 1 3 4
M  V30 4 2 4 5
M  V30 5 1 5 6
M  V30 6 2 6 7
M  V30 7 1 4 8
M  V30 8 2 8 9
M  V30 9 1 9 10
M  V30 10 2 10 11
M  V30 11 1 11 12
M  V30 12 3 12 13
M  V30 13 1 13 14
M  V30 14 2 14 15
M  V30 15 1 15 16
M  V30 16 2 16 17
M  V30 17 1 17 18
M  V30 18 3 18 19
M  V30 19 1 19 20
M  V30 20 2 20 21
M  V30 21 1 21 22
M  V30 22 2 22 23
M  V30 23 1 23 24
M  V30 24 1 24 25
M  V30 25 1 25 26
M  V30 26 2 26 27
M  V30 27 1 27 28
M  V30 28 2 28 29
M  V30 29 1 29 30
M  V30 30 1 26 31
M  V30 31 2 31 32
M  V30 32 1 32 33
M  V30 33 1 23 34
M  V30 34 2 34 35
M  V30 35 1 17 36
M  V30 36 1 11 37
M  V30 37 2 37 38
M  V30 38 2 3 39
M  V30 39 1 39 40
M  V30 40 2 40 41
M  V30 41 1 41 1
M  V30 42 1 7 2
M  V30 43 1 38 8
M  V30 44 1 36 14
M  V30 45 1 35 20
M  V30 46 2 33 24
M  V30 47 2 30 25
M  V30 48 1 1 42
M  V30 49 1 5 43
M  V30 50 1 6 44
M  V30 51 1 7 45
M  V30 52 1 9 46
M  V30 53 1 10 47
M  V30 54 1 15 48
M  V30 55 1 16 49
M  V30 56 1 21 50
M  V30 57 1 22 51
M  V30 58 1 27 52
M  V30 59 1 28 53
M  V30 60 1 30 54
M  V30 61 1 31 55
M  V30 62 1 32 56
M  V30 63 1 33 57
M  V30 64 1 34 58
M  V30 65 1 35 59
M  V30 66 1 37 60
M  V30 67 1 38 61
M  V30 68 1 39 62
M  V30 69 1 41 63
M  V30 END BOND
M  V30 END CTAB
M  END

$$$$
