
     RDKit          3D

  0  0  0  0  0  0  0  0  0  0999 V3000
M  V30 BEGIN CTAB
M  V30 COUNTS 63 69 0 0 0
M  V30 BEGIN ATOM
M  V30 1 C 12.3885 -0.4251 -2.1936 0
M  V30 2 C 11.6309 0.1125 -1.1445 0
M  V30 3 C 10.2328 -0.1207 -1.0928 0
M  V30 4 C 9.4746 0.4235 -0.0234 0
M  V30 5 C 10.1192 1.2082 0.9470 0
M  V30 6 C 11.4941 1.4353 0.8823 0
M  V30 7 C 12.2497 0.8861 -0.1526 0
M  V30 8 C 8.0208 0.1845 0.1222 0
M  V30 9 C 7.5318 -1.1151 0.3329 0
M  V30 10 C 6.1599 -1.3354 0.4865 0
M  V30 11 C 5.2662 -0.2581 0.4414 0
M  V30 12 C 3.8538 -0.4872 0.5948 0
M  V30 13 C 2.6710 -0.6827 0.7209 0
M  V30 14 C 1.2629 -0.9206 0.8681 0
M  V30 15 C 0.6912 -2.0780 1.3783 0
M  V30 16 C -0.7078 -2.0363 1.3887 0
M  V30 17 C -1.2170 -0.8467 0.8866 0
M  V30 18 C -2.6106 -0.5263 0.7597 0
M  V30 19 C -3.7816 -0.2622 0.6506 0
M  V30 20 C -5.1805 0.0471 0.5165 0
M  V30 21 C -5.8885 -0.3852 -0.6117 0
M  V30 22 C -7.2488 -0.0905 -0.7413 0
M  V30 23 C -7.9163 0.6304 0.2625 0
M  V30 24 C -9.3524 0.9620 0.1173 0
M  V30 25 C -10.3598 -0.0340 0.0208 0
M  V30 26 C -11.7092 0.3565 -0.1757 0
M  V30 27 C -12.7089 -0.6198 -0.2796 0
M  V30 28 C -12.3667 -1.9669 -0.1746 0
M  V30 29 N -11.0753 -2.3281 0.0365 0
M  V30 30 C -10.0780 -1.4104 0.1396 0
M  V30 31 C -12.0411 1.7161 -0.2566 0
M  V30 32 C -11.0495 2.6886 -0.1362 0
M  V30 33 C -9.7178 2.3169 0.0509 0
M  V30 34 C -7.1983 1.0750 1.3844 0
M  V30 35 C -5.8372 0.7803 1.5127 0
M  V30 36 S 0.0505 0.1572 0.4260 0
M  V30 37 C 5.7501 1.0414 0.2467 0
M  V30 38 C 7.1222 1.2627 0.0921 0
M  V30 39 C 9.6457 -0.8704 -2.1325 0
M  V30 40 N 10.4127 -1.3727 -3.1359 0
M  V30 41 C 11.7548 -1.1732 -3.1846 0
M  V30 42 H 13.4589 -0.2646 -2.2490 0
M  V30 43 H 9.5554 1.6333 1.7689 0
M  V30 44 H 11.9774 2.0350 1.6431 0
M  V30 45 H 13.3173 1.0707 -0.1811 0
M  V30 46 H 8.2139 -1.9554 0.3786 0
M  V30 47 H 5.7963 -2.3439 0.6421 0
M  V30 48 H 1.2635 -2.9271 1.7287 0
M  V30 49 H -1.3243 -2.8497 1.7478 0
M  V30 50 H -5.3885 -0.9476 -1.3912 0
M  V30 51 H -7.7825 -0.4225 -1.6235 0
M  V30 52 H -13.7448 -0.3434 -0.4353 0
M  V30 53 H -13.1315 -2.7282 -0.2522 0
M  V30 54 H -9.0748 -1.7658 0.3277 0
M  V30 55 H -13.0687 2.0268 -0.4057 0
M  V30 56 H -11.3130 3.7371 -0.1947 0
M  V30 57 H -8.9633 3.0909 0.1250 0
M  V30 58 H -7.6944 1.6430 2.1619 0
M  V30 59 H -5.2977 1.1235 2.3874 0
M  V30 60 H 5.0677 1.8824 0.2140 0
M  V30 61 H 7.4842 2.2724 -0.0594 0
M  V30 62 H 8.5807 -1.0525 -2.1636 0
M  V30 63 H 12.3304 -1.5907 -3.9999 0
M  V30 END ATOM
M  V30 BEGIN BOND
M  V30 1 2 1 2
M  V30 2 1 2 3
M  V30 3 1 3 4
M  V30 4 2 4 5
M  V30 5 1 5 6
M  V30 6 2 6 7
M  V30 7 1 4 8
M  V30 8 2 8 9
M  V30 9 1 9 10
M  V30 10 2 10 11
M  V30 11 1 11 12
M  V30 12 3 12 13
M  V30 13 1 13 14
M  V30 14 2 14 15
M  V30 15 1 15 16
M  V30 16 2 16 17
M  V30 17 1 17 18
M  V30 18 3 18 19
M  V30 19 1 19 20
M  V30 20 2 20 21
M  V30 21 1 21 22
M  V30 22 2 22 23
M  V30 23 1 23 24
M  V30 24 1 24 25
M  V30 25 1 25 26
M  V30 26 2 26 27
M  V30 27 1 27 28
M  V30 28 2 28 29
M  V30 29 1 29 30
M  V30 30 1 26 31
M  V30 31 2 31 32
M  V30 32 1 32 33
M  V30 33 1 23 34
M  V30 34 2 34 35
M  V30 35 1 17 36
M  V30 36 1 11 37
M  V30 37 2 37 38
M  V30 38 2 3 39
M  V30 39 1 39 40
M  V30 40 2 40 41
M  V30 41 1 41 1
M  V30 42 1 7 2
M  V30 43 1 38 8
M  V30 44 1 36 14
M  V30 45 1 35 20
M  V30 46 2 33 24
M  V30 47 2 30 25
M  V30 48 1 1 42
M  V30 49 1 5 43
M  V30 50 1 6 44
M  V30 51 1 7 45
M  V30 52 1 9 46
M  V30 53 1 10 47
M  V30 54 1 15 48
M  V30 55 1 16 49
M  V30 56 1 21 50
M  V30 57 1 22 51
M  V30 58 1 27 52
M  V30 59 1 28 53
M  V30 60 1 30 54
M  V30 61 1 31 55
M  V30 62 1 32 56
M  V30 63 1 33 57
M  V30 64 1 34 58
M  V30 65 1 35 59
M  V30 66 1 37 60
M  V30 67 1 38 61
M  V30 68 1 39 62
M  V30 69 1 41 63
M  V30 END BOND
M  V30 END CTAB
M  END

$$$$
