
     RDKit          3D

  0  0  0  0  0  0  0  0  0  0999 V3000
M  V30 BEGIN CTAB
M  V30 COUNTS 63 69 0 0 0
M  V30 BEGIN ATOM
M  V30 1 C -11.8676 -3.3620 -1.2395 0
M  V30 2 C -11.3374 -2.0802 -1.0385 0
M  V30 3 C -9.9410 -1.9159 -0.8486 0
M  V30 4 C -9.4155 -0.6159 -0.6276 0
M  V30 5 C -10.2843 0.4887 -0.6466 0
M  V30 6 C -11.6543 0.3153 -0.8427 0
M  V30 7 C -12.1824 -0.9614 -1.0315 0
M  V30 8 C -7.9833 -0.3746 -0.3390 0
M  V30 9 C -7.2211 0.4541 -1.1785 0
M  V30 10 C -5.8739 0.7033 -0.8896 0
M  V30 11 C -5.2830 0.1375 0.2480 0
M  V30 12 C -3.9046 0.4087 0.5613 0
M  V30 13 C -2.7529 0.6341 0.8362 0
M  V30 14 C -1.3835 0.9010 1.1742 0
M  V30 15 C -0.9562 1.6739 2.2456 0
M  V30 16 C 0.4379 1.7495 2.3414 0
M  V30 17 C 1.0878 1.0329 1.3455 0
M  V30 18 C 2.5112 0.9177 1.1967 0
M  V30 19 C 3.7065 0.8167 1.0720 0
M  V30 20 C 5.1325 0.6917 0.9236 0
M  V30 21 C 5.9596 1.8069 1.1102 0
M  V30 22 C 7.3449 1.6838 0.9709 0
M  V30 23 C 7.9135 0.4431 0.6381 0
M  V30 24 C 9.3829 0.2983 0.5303 0
M  V30 25 C 10.1487 0.9945 -0.4396 0
M  V30 26 C 11.5611 0.8521 -0.4467 0
M  V30 27 C 12.3259 1.5426 -1.3967 0
M  V30 28 C 11.6859 2.3521 -2.3353 0
M  V30 29 N 10.3318 2.4619 -2.3338 0
M  V30 30 C 9.5577 1.8107 -1.4258 0
M  V30 31 C 12.1861 0.0168 0.4902 0
M  V30 32 C 11.4232 -0.6815 1.4259 0
M  V30 33 C 10.0357 -0.5476 1.4441 0
M  V30 34 C 7.0803 -0.6727 0.4602 0
M  V30 35 C 5.6952 -0.5478 0.5978 0
M  V30 36 S -0.0489 0.3062 0.3426 0
M  V30 37 C -6.0430 -0.6799 1.0936 0
M  V30 38 C -7.3875 -0.9315 0.8045 0
M  V30 39 C -9.1223 -3.0623 -0.9125 0
M  V30 40 N -9.6720 -4.2883 -1.1178 0
M  V30 41 C -11.0107 -4.4608 -1.2736 0
M  V30 42 H -12.9329 -3.5121 -1.3710 0
M  V30 43 H -9.9014 1.4901 -0.4883 0
M  V30 44 H -12.3124 1.1746 -0.8398 0
M  V30 45 H -13.2519 -1.0741 -1.1786 0
M  V30 46 H -7.6679 0.9014 -2.0567 0
M  V30 47 H -5.2968 1.3415 -1.5485 0
M  V30 48 H -1.6275 2.1643 2.9393 0
M  V30 49 H 0.9509 2.3101 3.1129 0
M  V30 50 H 5.5321 2.7679 1.3662 0
M  V30 51 H 7.9766 2.5502 1.1285 0
M  V30 52 H 13.4071 1.4551 -1.4172 0
M  V30 53 H 12.2668 2.8891 -3.0733 0
M  V30 54 H 8.4848 1.9251 -1.4924 0
M  V30 55 H 13.2645 -0.1016 0.4952 0
M  V30 56 H 11.9098 -1.3261 2.1467 0
M  V30 57 H 9.4672 -1.0930 2.1880 0
M  V30 58 H 7.5044 -1.6365 0.2114 0
M  V30 59 H 5.0640 -1.4172 0.4510 0
M  V30 60 H -5.5978 -1.1163 1.9805 0
M  V30 61 H -7.9656 -1.5572 1.4739 0
M  V30 62 H -8.0475 -2.9932 -0.8161 0
M  V30 63 H -11.4094 -5.4541 -1.4348 0
M  V30 END ATOM
M  V30 BEGIN BOND
M  V30 1 2 1 2
M  V30 2 1 2 3
M  V30 3 1 3 4
M  V30 4 2 4 5
M  V30 5 1 5 6
M  V30 6 2 6 7
M  V30 7 1 4 8
M  V30 8 2 8 9
M  V30 9 1 9 10
M  V30 10 2 10 11
M  V30 11 1 11 12
M  V30 12 3 12 13
M  V30 13 1 13 14
M  V30 14 2 14 15
M  V30 15 1 15 16
M  V30 16 2 16 17
M  V30 17 1 17 18
M  V30 18 3 18 19
M  V30 19 1 19 20
M  V30 20 2 20 21
M  V30 21 1 21 22
M  V30 22 2 22 23
M  V30 23 1 23 24
M  V30 24 1 24 25
M  V30 25 1 25 26
M  V30 26 2 26 27
M  V30 27 1 27 28
M  V30 28 2 28 29
M  V30 29 1 29 30
M  V30 30 1 26 31
M  V30 31 2 31 32
M  V30 32 1 32 33
M  V30 33 1 23 34
M  V30 34 2 34 35
M  V30 35 1 17 36
M  V30 36 1 11 37
M  V30 37 2 37 38
M  V30 38 2 3 39
M  V30 39 1 39 40
M  V30 40 2 40 41
M  V30 41 1 41 1
M  V30 42 1 7 2
M  V30 43 1 38 8
M  V30 44 1 36 14
M  V30 45 1 35 20
M  V30 46 2 33 24
M  V30 47 2 30 25
M  V30 48 1 1 42
M  V30 49 1 5 43
M  V30 50 1 6 44
M  V30 51 1 7 45
M  V30 52 1 9 46
M  V30 53 1 10 47
M  V30 54 1 15 48
M  V30 55 1 16 49
M  V30 56 1 21 50
M  V30 57 1 22 51
M  V30 58 1 27 52
M  V30 59 1 28 53
M  V30 60 1 30 54
M  V30 61 1 31 55
M  V30 62 1 32 56
M  V30 63 1 33 57
M  V30 64 1 34 58
M  V30 65 1 35 59
M  V30 66 1 37 60
M  V30 67 1 38 61
M  V30 68 1 39 62
M  V30 69 1 41 63
M  V30 END BOND
M  V30 END CTAB
M  END

$$$$
