
     RDKit          3D

  0  0  0  0  0  0  0  0  0  0999 V3000
M  V30 BEGIN CTAB
M  V30 COUNTS 63 69 0 0 0
M  V30 BEGIN ATOM
M  V30 1 C 12.6068 -1.8542 -0.1573 0
M  V30 2 C 11.5729 -1.7779 0.7851 0
M  V30 3 C 10.2592 -1.4456 0.3656 0
M  V30 4 C 9.2196 -1.3641 1.3287 0
M  V30 5 C 9.5061 -1.6476 2.6745 0
M  V30 6 C 10.8007 -1.9799 3.0737 0
M  V30 7 C 11.8320 -2.0385 2.1377 0
M  V30 8 C 7.8363 -0.9700 0.9757 0
M  V30 9 C 6.7694 -1.8509 1.2140 0
M  V30 10 C 5.4590 -1.4704 0.9079 0
M  V30 11 C 5.2033 -0.2034 0.3691 0
M  V30 12 C 3.8535 0.1919 0.0647 0
M  V30 13 C 2.7222 0.5246 -0.1853 0
M  V30 14 C 1.3737 0.9220 -0.4761 0
M  V30 15 C 1.0037 2.0030 -1.2648 0
M  V30 16 C -0.3843 2.1619 -1.3547 0
M  V30 17 C -1.0861 1.2035 -0.6360 0
M  V30 18 C -2.5153 1.1185 -0.5326 0
M  V30 19 C -3.7148 1.0434 -0.4410 0
M  V30 20 C -5.1462 0.9484 -0.3267 0
M  V30 21 C -5.8490 1.8605 0.4707 0
M  V30 22 C -7.2384 1.7600 0.5928 0
M  V30 23 C -7.9377 0.7516 -0.0891 0
M  V30 24 C -9.4044 0.6248 0.0688 0
M  V30 25 C -10.3017 0.7322 -1.0256 0
M  V30 26 C -11.6903 0.5387 -0.8097 0
M  V30 27 C -12.5826 0.6346 -1.8857 0
M  V30 28 C -12.0953 0.9356 -3.1566 0
M  V30 29 N -10.7668 1.1422 -3.3472 0
M  V30 30 C -9.8707 1.0530 -2.3293 0
M  V30 31 C -12.1676 0.2610 0.4787 0
M  V30 32 C -11.2823 0.1822 1.5526 0
M  V30 33 C -9.9137 0.3636 1.3517 0
M  V30 34 C -7.2270 -0.1665 -0.8795 0
M  V30 35 C -5.8379 -0.0653 -1.0009 0
M  V30 36 S -0.0034 0.1594 0.1145 0
M  V30 37 C 6.2627 0.6830 0.1399 0
M  V30 38 C 7.5730 0.3040 0.4465 0
M  V30 39 C 10.0352 -1.2349 -1.0103 0
M  V30 40 N 11.0628 -1.3217 -1.8956 0
M  V30 41 C 12.3283 -1.6165 -1.5023 0
M  V30 42 H 13.6186 -2.1006 0.1422 0
M  V30 43 H 8.7246 -1.5931 3.4230 0
M  V30 44 H 11.0065 -2.1872 4.1160 0
M  V30 45 H 12.8310 -2.2951 2.4699 0
M  V30 46 H 6.9537 -2.8329 1.6320 0
M  V30 47 H 4.6463 -2.1621 1.0939 0
M  V30 48 H 1.7111 2.6590 -1.7558 0
M  V30 49 H -0.8567 2.9527 -1.9225 0
M  V30 50 H -5.3228 2.6457 1.0002 0
M  V30 51 H -7.7702 2.4693 1.2153 0
M  V30 52 H -13.6465 0.4837 -1.7443 0
M  V30 53 H -12.7765 1.0142 -3.9933 0
M  V30 54 H -8.8298 1.2477 -2.5466 0
M  V30 55 H -13.2264 0.1126 0.6564 0
M  V30 56 H -11.6580 -0.0277 2.5458 0
M  V30 57 H -9.2436 0.2806 2.1991 0
M  V30 58 H -7.7486 -0.9633 -1.3955 0
M  V30 59 H -5.3034 -0.7807 -1.6145 0
M  V30 60 H 6.0750 1.6680 -0.2700 0
M  V30 61 H 8.3822 1.0034 0.2758 0
M  V30 62 H 9.0489 -1.0148 -1.3932 0
M  V30 63 H 13.1193 -1.6752 -2.2379 0
M  V30 END ATOM
M  V30 BEGIN BOND
M  V30 1 2 1 2
M  V30 2 1 2 3
M  V30 3 1 3 4
M  V30 4 2 4 5
M  V30 5 1 5 6
M  V30 6 2 6 7
M  V30 7 1 4 8
M  V30 8 2 8 9
M  V30 9 1 9 10
M  V30 10 2 10 11
M  V30 11 1 11 12
M  V30 12 3 12 13
M  V30 13 1 13 14
M  V30 14 2 14 15
M  V30 15 1 15 16
M  V30 16 2 16 17
M  V30 17 1 17 18
M  V30 18 3 18 19
M  V30 19 1 19 20
M  V30 20 2 20 21
M  V30 21 1 21 22
M  V30 22 2 22 23
M  V30 23 1 23 24
M  V30 24 1 24 25
M  V30 25 1 25 26
M  V30 26 2 26 27
M  V30 27 1 27 28
M  V30 28 2 28 29
M  V30 29 1 29 30
M  V30 30 1 26 31
M  V30 31 2 31 32
M  V30 32 1 32 33
M  V30 33 1 23 34
M  V30 34 2 34 35
M  V30 35 1 17 36
M  V30 36 1 11 37
M  V30 37 2 37 38
M  V30 38 2 3 39
M  V30 39 1 39 40
M  V30 40 2 40 41
M  V30 41 1 41 1
M  V30 42 1 7 2
M  V30 43 1 38 8
M  V30 44 1 36 14
M  V30 45 1 35 20
M  V30 46 2 33 24
M  V30 47 2 30 25
M  V30 48 1 1 42
M  V30 49 1 5 43
M  V30 50 1 6 44
M  V30 51 1 7 45
M  V30 52 1 9 46
M  V30 53 1 10 47
M  V30 54 1 15 48
M  V30 55 1 16 49
M  V30 56 1 21 50
M  V30 57 1 22 51
M  V30 58 1 27 52
M  V30 59 1 28 53
M  V30 60 1 30 54
M  V30 61 1 31 55
M  V30 62 1 32 56
M  V30 63 1 33 57
M  V30 64 1 34 58
M  V30 65 1 35 59
M  V30 66 1 37 60
M  V30 67 1 38 61
M  V30 68 1 39 62
M  V30 69 1 41 63
M  V30 END BOND
M  V30 END CTAB
M  END

$$$$
