
     RDKit          3D

  0  0  0  0  0  0  0  0  0  0999 V3000
M  V30 BEGIN CTAB
M  V30 COUNTS 63 69 0 0 0
M  V30 BEGIN ATOM
M  V30 1 C 12.1679 2.4135 -1.4171 0
M  V30 2 C 11.4388 1.6103 -0.5303 0
M  V30 3 C 10.0833 1.3008 -0.8110 0
M  V30 4 C 9.3509 0.4911 0.0961 0
M  V30 5 C 9.9930 -0.0146 1.2384 0
M  V30 6 C 11.3285 0.2918 1.5005 0
M  V30 7 C 12.0482 1.1051 0.6264 0
M  V30 8 C 7.9199 0.1675 -0.1035 0
M  V30 9 C 6.9544 1.1876 -0.1086 0
M  V30 10 C 5.6016 0.8770 -0.2763 0
M  V30 11 C 5.2011 -0.4561 -0.4301 0
M  V30 12 C 3.8086 -0.7754 -0.6023 0
M  V30 13 C 2.6421 -1.0425 -0.7465 0
M  V30 14 C 1.2527 -1.3602 -0.9179 0
M  V30 15 C 0.7484 -2.3385 -1.7643 0
M  V30 16 C -0.6481 -2.4257 -1.7255 0
M  V30 17 C -1.2225 -1.5149 -0.8489 0
M  V30 18 C -2.6290 -1.3715 -0.6001 0
M  V30 19 C -3.8100 -1.2511 -0.3909 0
M  V30 20 C -5.2199 -1.1074 -0.1414 0
M  V30 21 C -6.1473 -1.4670 -1.1273 0
M  V30 22 C -7.5174 -1.3282 -0.8852 0
M  V30 23 C -7.9713 -0.8197 0.3421 0
M  V30 24 C -9.4230 -0.6956 0.6048 0
M  V30 25 C -10.0447 0.5510 0.8776 0
M  V30 26 C -11.4322 0.5884 1.1693 0
M  V30 27 C -12.0532 1.8137 1.4454 0
M  V30 28 C -11.3007 2.9867 1.4155 0
M  V30 29 N -9.9780 2.9413 1.1133 0
M  V30 30 C -9.3403 1.7717 0.8442 0
M  V30 31 C -12.1803 -0.5969 1.1714 0
M  V30 32 C -11.5667 -1.8143 0.8799 0
M  V30 33 C -10.2016 -1.8647 0.5974 0
M  V30 34 C -7.0377 -0.4734 1.3326 0
M  V30 35 C -5.6679 -0.6120 1.0895 0
M  V30 36 S -0.0160 -0.5995 -0.1191 0
M  V30 37 C 6.1585 -1.4781 -0.4116 0
M  V30 38 C 7.5117 -1.1684 -0.2443 0
M  V30 39 C 9.5238 1.7944 -2.0071 0
M  V30 40 N 10.2639 2.5673 -2.8450 0
M  V30 41 C 11.5551 2.8883 -2.5755 0
M  V30 42 H 13.2027 2.6668 -1.2191 0
M  V30 43 H 9.4503 -0.6367 1.9401 0
M  V30 44 H 11.8065 -0.0990 2.3895 0
M  V30 45 H 13.0836 1.3330 0.8504 0
M  V30 46 H 7.2505 2.2217 0.0192 0
M  V30 47 H 4.8685 1.6747 -0.2830 0
M  V30 48 H 1.3668 -2.9693 -2.3899 0
M  V30 49 H -1.2170 -3.1304 -2.3182 0
M  V30 50 H -5.8114 -1.8554 -2.0813 0
M  V30 51 H -8.2244 -1.6104 -1.6558 0
M  V30 52 H -13.1106 1.8642 1.6765 0
M  V30 53 H -11.7714 3.9379 1.6249 0
M  V30 54 H -8.2898 1.8090 0.5929 0
M  V30 55 H -13.2413 -0.5807 1.3909 0
M  V30 56 H -12.1511 -2.7254 0.8782 0
M  V30 57 H -9.7443 -2.8244 0.3882 0
M  V30 58 H -7.3719 -0.0985 2.2924 0
M  V30 59 H -4.9592 -0.3364 1.8614 0
M  V30 60 H 5.8590 -2.5131 -0.5253 0
M  V30 61 H 8.2422 -1.9680 -0.2313 0
M  V30 62 H 8.5074 1.5616 -2.2915 0
M  V30 63 H 12.1102 3.5073 -3.2676 0
M  V30 END ATOM
M  V30 BEGIN BOND
M  V30 1 2 1 2
M  V30 2 1 2 3
M  V30 3 1 3 4
M  V30 4 2 4 5
M  V30 5 1 5 6
M  V30 6 2 6 7
M  V30 7 1 4 8
M  V30 8 2 8 9
M  V30 9 1 9 10
M  V30 10 2 10 11
M  V30 11 1 11 12
M  V30 12 3 12 13
M  V30 13 1 13 14
M  V30 14 2 14 15
M  V30 15 1 15 16
M  V30 16 2 16 17
M  V30 17 1 17 18
M  V30 18 3 18 19
M  V30 19 1 19 20
M  V30 20 2 20 21
M  V30 21 1 21 22
M  V30 22 2 22 23
M  V30 23 1 23 24
M  V30 24 1 24 25
M  V30 25 1 25 26
M  V30 26 2 26 27
M  V30 27 1 27 28
M  V30 28 2 28 29
M  V30 29 1 29 30
M  V30 30 1 26 31
M  V30 31 2 31 32
M  V30 32 1 32 33
M  V30 33 1 23 34
M  V30 34 2 34 35
M  V30 35 1 17 36
M  V30 36 1 11 37
M  V30 37 2 37 38
M  V30 38 2 3 39
M  V30 39 1 39 40
M  V30 40 2 40 41
M  V30 41 1 41 1
M  V30 42 1 7 2
M  V30 43 1 38 8
M  V30 44 1 36 14
M  V30 45 1 35 20
M  V30 46 2 33 24
M  V30 47 2 30 25
M  V30 48 1 1 42
M  V30 49 1 5 43
M  V30 50 1 6 44
M  V30 51 1 7 45
M  V30 52 1 9 46
M  V30 53 1 10 47
M  V30 54 1 15 48
M  V30 55 1 16 49
M  V30 56 1 21 50
M  V30 57 1 22 51
M  V30 58 1 27 52
M  V30 59 1 28 53
M  V30 60 1 30 54
M  V30 61 1 31 55
M  V30 62 1 32 56
M  V30 63 1 33 57
M  V30 64 1 34 58
M  V30 65 1 35 59
M  V30 66 1 37 60
M  V30 67 1 38 61
M  V30 68 1 39 62
M  V30 69 1 41 63
M  V30 END BOND
M  V30 END CTAB
M  END

$$$$
