
     RDKit          3D

  0  0  0  0  0  0  0  0  0  0999 V3000
M  V30 BEGIN CTAB
M  V30 COUNTS 63 69 0 0 0
M  V30 BEGIN ATOM
M  V30 1 C -12.6579 0.0093 1.5387 0
M  V30 2 C -11.5531 0.8711 1.5372 0
M  V30 3 C -10.2481 0.3443 1.3608 0
M  V30 4 C -9.1354 1.2258 1.3545 0
M  V30 5 C -9.3463 2.5998 1.5562 0
M  V30 6 C -10.6342 3.1052 1.7349 0
M  V30 7 C -11.7342 2.2490 1.7191 0
M  V30 8 C -7.7500 0.7567 1.1245 0
M  V30 9 C -6.7672 0.9507 2.1081 0
M  V30 10 C -5.4529 0.5294 1.8843 0
M  V30 11 C -5.1079 -0.0811 0.6721 0
M  V30 12 C -3.7548 -0.5134 0.4418 0
M  V30 13 C -2.6213 -0.8751 0.2488 0
M  V30 14 C -1.2712 -1.3052 0.0186 0
M  V30 15 C -0.8779 -2.6050 -0.2703 0
M  V30 16 C 0.5050 -2.7292 -0.4480 0
M  V30 17 C 1.1799 -1.5254 -0.2963 0
M  V30 18 C 2.5982 -1.3441 -0.4233 0
M  V30 19 C 3.7891 -1.1919 -0.5307 0
M  V30 20 C 5.2109 -1.0107 -0.6598 0
M  V30 21 C 5.8918 -1.5609 -1.7529 0
M  V30 22 C 7.2733 -1.3860 -1.8787 0
M  V30 23 C 7.9841 -0.6511 -0.9166 0
M  V30 24 C 9.4504 -0.4874 -1.0396 0
M  V30 25 C 10.0672 0.7842 -1.1712 0
M  V30 26 C 11.4815 0.8690 -1.2360 0
M  V30 27 C 12.0993 2.1203 -1.3610 0
M  V30 28 C 11.3136 3.2694 -1.4348 0
M  V30 29 N 9.9600 3.1743 -1.3936 0
M  V30 30 C 9.3253 1.9790 -1.2689 0
M  V30 31 C 12.2568 -0.2976 -1.1846 0
M  V30 32 C 11.6422 -1.5443 -1.0776 0
M  V30 33 C 10.2523 -1.6402 -1.0076 0
M  V30 34 C 7.2988 -0.1127 0.1847 0
M  V30 35 C 5.9173 -0.2878 0.3095 0
M  V30 36 S 0.0793 -0.3045 0.0564 0
M  V30 37 C -6.0814 -0.2650 -0.3177 0
M  V30 38 C -7.3957 0.1566 -0.0950 0
M  V30 39 C -10.1087 -1.0520 1.2250 0
M  V30 40 N -11.2039 -1.8567 1.2353 0
M  V30 41 C -12.4595 -1.3613 1.3808 0
M  V30 42 H -13.6639 0.3912 1.6661 0
M  V30 43 H -8.5085 3.2869 1.5576 0
M  V30 44 H -10.7805 4.1677 1.8809 0
M  V30 45 H -12.7262 2.6629 1.8565 0
M  V30 46 H -7.0211 1.4223 3.0497 0
M  V30 47 H -4.7065 0.6806 2.6548 0
M  V30 48 H -1.5653 -3.4373 -0.3510 0
M  V30 49 H 0.9931 -3.6670 -0.6798 0
M  V30 50 H 5.3555 -2.1255 -2.5063 0
M  V30 51 H 7.7885 -1.8170 -2.7285 0
M  V30 52 H 13.1783 2.2083 -1.4068 0
M  V30 53 H 11.7811 4.2399 -1.5339 0
M  V30 54 H 8.2446 1.9730 -1.2610 0
M  V30 55 H 13.3380 -0.2456 -1.2350 0
M  V30 56 H 12.2465 -2.4417 -1.0433 0
M  V30 57 H 9.7983 -2.6192 -0.9105 0
M  V30 58 H 7.8356 0.4398 0.9462 0
M  V30 59 H 5.4013 0.1369 1.1622 0
M  V30 60 H -5.8238 -0.7306 -1.2614 0
M  V30 61 H -8.1372 0.0179 -0.8724 0
M  V30 62 H -9.1369 -1.5139 1.1240 0
M  V30 63 H -13.3058 -2.0351 1.3825 0
M  V30 END ATOM
M  V30 BEGIN BOND
M  V30 1 2 1 2
M  V30 2 1 2 3
M  V30 3 1 3 4
M  V30 4 2 4 5
M  V30 5 1 5 6
M  V30 6 2 6 7
M  V30 7 1 4 8
M  V30 8 2 8 9
M  V30 9 1 9 10
M  V30 10 2 10 11
M  V30 11 1 11 12
M  V30 12 3 12 13
M  V30 13 1 13 14
M  V30 14 2 14 15
M  V30 15 1 15 16
M  V30 16 2 16 17
M  V30 17 1 17 18
M  V30 18 3 18 19
M  V30 19 1 19 20
M  V30 20 2 20 21
M  V30 21 1 21 22
M  V30 22 2 22 23
M  V30 23 1 23 24
M  V30 24 1 24 25
M  V30 25 1 25 26
M  V30 26 2 26 27
M  V30 27 1 27 28
M  V30 28 2 28 29
M  V30 29 1 29 30
M  V30 30 1 26 31
M  V30 31 2 31 32
M  V30 32 1 32 33
M  V30 33 1 23 34
M  V30 34 2 34 35
M  V30 35 1 17 36
M  V30 36 1 11 37
M  V30 37 2 37 38
M  V30 38 2 3 39
M  V30 39 1 39 40
M  V30 40 2 40 41
M  V30 41 1 41 1
M  V30 42 1 7 2
M  V30 43 1 38 8
M  V30 44 1 36 14
M  V30 45 1 35 20
M  V30 46 2 33 24
M  V30 47 2 30 25
M  V30 48 1 1 42
M  V30 49 1 5 43
M  V30 50 1 6 44
M  V30 51 1 7 45
M  V30 52 1 9 46
M  V30 53 1 10 47
M  V30 54 1 15 48
M  V30 55 1 16 49
M  V30 56 1 21 50
M  V30 57 1 22 51
M  V30 58 1 27 52
M  V30 59 1 28 53
M  V30 60 1 30 54
M  V30 61 1 31 55
M  V30 62 1 32 56
M  V30 63 1 33 57
M  V30 64 1 34 58
M  V30 65 1 35 59
M  V30 66 1 37 60
M  V30 67 1 38 61
M  V30 68 1 39 62
M  V30 69 1 41 63
M  V30 END BOND
M  V30 END CTAB
M  END

$$$$
