
     RDKit          3D

  0  0  0  0  0  0  0  0  0  0999 V3000
M  V30 BEGIN CTAB
M  V30 COUNTS 63 69 0 0 0
M  V30 BEGIN ATOM
M  V30 1 C -12.7633 0.4335 0.0379 0
M  V30 2 C -11.7512 -0.5201 -0.1333 0
M  V30 3 C -10.3929 -0.1427 0.0233 0
M  V30 4 C -9.3746 -1.1169 -0.1464 0
M  V30 5 C -9.7310 -2.4293 -0.4982 0
M  V30 6 C -11.0702 -2.7870 -0.6554 0
M  V30 7 C -12.0774 -1.8416 -0.4679 0
M  V30 8 C -7.9396 -0.8103 0.0507 0
M  V30 9 C -7.0330 -0.9645 -1.0103 0
M  V30 10 C -5.6738 -0.6966 -0.8206 0
M  V30 11 C -5.2081 -0.2814 0.4332 0
M  V30 12 C -3.8090 -0.0065 0.6279 0
M  V30 13 C -2.6372 0.2237 0.7913 0
M  V30 14 C -1.2415 0.4974 0.9860 0
M  V30 15 C -0.7191 1.4218 1.8806 0
M  V30 16 C 0.6795 1.4742 1.8556 0
M  V30 17 C 1.2374 0.5902 0.9417 0
M  V30 18 C 2.6417 0.4214 0.6968 0
M  V30 19 C 3.8209 0.2794 0.4913 0
M  V30 20 C 5.2287 0.1098 0.2461 0
M  V30 21 C 6.1574 0.4139 1.2493 0
M  V30 22 C 7.5252 0.2483 1.0118 0
M  V30 23 C 7.9765 -0.2138 -0.2354 0
M  V30 24 C 9.4229 -0.4122 -0.4822 0
M  V30 25 C 10.3572 0.6555 -0.4406 0
M  V30 26 C 11.7353 0.3835 -0.6374 0
M  V30 27 C 12.6654 1.4304 -0.5923 0
M  V30 28 C 12.2224 2.7329 -0.3684 0
M  V30 29 N 10.8986 2.9846 -0.2035 0
M  V30 30 C 9.9676 1.9950 -0.2367 0
M  V30 31 C 12.1623 -0.9282 -0.8858 0
M  V30 32 C 11.2357 -1.9679 -0.9480 0
M  V30 33 C 9.8784 -1.7137 -0.7500 0
M  V30 34 C 7.0407 -0.5299 -1.2331 0
M  V30 35 C 5.6730 -0.3643 -0.9946 0
M  V30 36 S 0.0136 -0.2586 0.1616 0
M  V30 37 C -6.1061 -0.1390 1.4982 0
M  V30 38 C -7.4653 -0.4070 1.3097 0
M  V30 39 C -10.1086 1.2065 0.3175 0
M  V30 40 N -11.1174 2.1039 0.4723 0
M  V30 41 C -12.4217 1.7492 0.3467 0
M  V30 42 H -13.8075 0.1653 -0.0714 0
M  V30 43 H -8.9668 -3.1851 -0.6348 0
M  V30 44 H -11.3287 -3.8046 -0.9185 0
M  V30 45 H -13.1114 -2.1413 -0.5920 0
M  V30 46 H -7.3806 -1.2854 -1.9847 0
M  V30 47 H -4.9868 -0.8142 -1.6501 0
M  V30 48 H -1.3260 2.0386 2.5307 0
M  V30 49 H 1.2615 2.1355 2.4844 0
M  V30 50 H 5.8242 0.7755 2.2147 0
M  V30 51 H 8.2329 0.4774 1.7991 0
M  V30 52 H 13.7233 1.2439 -0.7343 0
M  V30 53 H 12.9325 3.5484 -0.3340 0
M  V30 54 H 8.9286 2.2673 -0.1167 0
M  V30 55 H 13.2122 -1.1481 -1.0396 0
M  V30 56 H 11.5715 -2.9778 -1.1450 0
M  V30 57 H 9.1790 -2.5404 -0.7885 0
M  V30 58 H 7.3714 -0.8979 -2.1967 0
M  V30 59 H 4.9627 -0.6067 -1.7760 0
M  V30 60 H -5.7555 0.1757 2.4738 0
M  V30 61 H -8.1484 -0.3028 2.1439 0
M  V30 62 H -9.0917 1.5599 0.4127 0
M  V30 63 H -13.1958 2.4933 0.4787 0
M  V30 END ATOM
M  V30 BEGIN BOND
M  V30 1 2 1 2
M  V30 2 1 2 3
M  V30 3 1 3 4
M  V30 4 2 4 5
M  V30 5 1 5 6
M  V30 6 2 6 7
M  V30 7 1 4 8
M  V30 8 2 8 9
M  V30 9 1 9 10
M  V30 10 2 10 11
M  V30 11 1 11 12
M  V30 12 3 12 13
M  V30 13 1 13 14
M  V30 14 2 14 15
M  V30 15 1 15 16
M  V30 16 2 16 17
M  V30 17 1 17 18
M  V30 18 3 18 19
M  V30 19 1 19 20
M  V30 20 2 20 21
M  V30 21 1 21 22
M  V30 22 2 22 23
M  V30 23 1 23 24
M  V30 24 1 24 25
M  V30 25 1 25 26
M  V30 26 2 26 27
M  V30 27 1 27 28
M  V30 28 2 28 29
M  V30 29 1 29 30
M  V30 30 1 26 31
M  V30 31 2 31 32
M  V30 32 1 32 33
M  V30 33 1 23 34
M  V30 34 2 34 35
M  V30 35 1 17 36
M  V30 36 1 11 37
M  V30 37 2 37 38
M  V30 38 2 3 39
M  V30 39 1 39 40
M  V30 40 2 40 41
M  V30 41 1 41 1
M  V30 42 1 7 2
M  V30 43 1 38 8
M  V30 44 1 36 14
M  V30 45 1 35 20
M  V30 46 2 33 24
M  V30 47 2 30 25
M  V30 48 1 1 42
M  V30 49 1 5 43
M  V30 50 1 6 44
M  V30 51 1 7 45
M  V30 52 1 9 46
M  V30 53 1 10 47
M  V30 54 1 15 48
M  V30 55 1 16 49
M  V30 56 1 21 50
M  V30 57 1 22 51
M  V30 58 1 27 52
M  V30 59 1 28 53
M  V30 60 1 30 54
M  V30 61 1 31 55
M  V30 62 1 32 56
M  V30 63 1 33 57
M  V30 64 1 34 58
M  V30 65 1 35 59
M  V30 66 1 37 60
M  V30 67 1 38 61
M  V30 68 1 39 62
M  V30 69 1 41 63
M  V30 END BOND
M  V30 END CTAB
M  END

$$$$
