
     RDKit          3D

  0  0  0  0  0  0  0  0  0  0999 V3000
M  V30 BEGIN CTAB
M  V30 COUNTS 63 69 0 0 0
M  V30 BEGIN ATOM
M  V30 1 C -12.5009 1.6822 -0.6403 0
M  V30 2 C -11.6705 0.5830 -0.3849 0
M  V30 3 C -10.2880 0.7852 -0.1407 0
M  V30 4 C -9.4535 -0.3350 0.1115 0
M  V30 5 C -10.0199 -1.6199 0.1460 0
M  V30 6 C -11.3823 -1.8055 -0.0898 0
M  V30 7 C -12.2045 -0.7128 -0.3608 0
M  V30 8 C -7.9939 -0.2075 0.3248 0
M  V30 9 C -7.1669 0.2882 -0.6964 0
M  V30 10 C -5.7862 0.3872 -0.4997 0
M  V30 11 C -5.2192 -0.0177 0.7151 0
M  V30 12 C -3.7980 0.0836 0.9169 0
M  V30 13 C -2.6076 0.1683 1.0860 0
M  V30 14 C -1.1898 0.2690 1.2873 0
M  V30 15 C -0.5713 0.8693 2.3757 0
M  V30 16 C 0.8258 0.8183 2.3053 0
M  V30 17 C 1.2865 0.1785 1.1624 0
M  V30 18 C 2.6657 -0.0245 0.8201 0
M  V30 19 C 3.8238 -0.1953 0.5326 0
M  V30 20 C 5.2063 -0.3994 0.1894 0
M  V30 21 C 5.8205 0.4194 -0.7664 0
M  V30 22 C 7.1635 0.2209 -1.1005 0
M  V30 23 C 7.9067 -0.7928 -0.4738 0
M  V30 24 C 9.3226 -1.0203 -0.8419 0
M  V30 25 C 10.3293 -0.0396 -0.6430 0
M  V30 26 C 11.6566 -0.3081 -1.0649 0
M  V30 27 C 12.6557 0.6562 -0.8775 0
M  V30 28 C 12.3354 1.8660 -0.2636 0
M  V30 29 N 11.0664 2.1033 0.1562 0
M  V30 30 C 10.0702 1.1942 -0.0118 0
M  V30 31 C 11.9679 -1.5390 -1.6587 0
M  V30 32 C 10.9781 -2.5057 -1.8298 0
M  V30 33 C 9.6679 -2.2510 -1.4242 0
M  V30 34 C 7.2827 -1.6195 0.4739 0
M  V30 35 C 5.9394 -1.4203 0.8072 0
M  V30 36 S -0.0217 -0.3265 0.2349 0
M  V30 37 C -6.0380 -0.5256 1.7315 0
M  V30 38 C -7.4189 -0.6246 1.5358 0
M  V30 39 C -9.8022 2.1086 -0.1321 0
M  V30 40 N -10.6392 3.1502 -0.3801 0
M  V30 41 C -11.9596 2.9668 -0.6370 0
M  V30 42 H -13.5586 1.5498 -0.8349 0
M  V30 43 H -9.3985 -2.4860 0.3401 0
M  V30 44 H -11.8018 -2.8031 -0.0679 0
M  V30 45 H -13.2594 -0.8796 -0.5441 0
M  V30 46 H -7.5921 0.5955 -1.6441 0
M  V30 47 H -5.1612 0.7758 -1.2948 0
M  V30 48 H -1.1093 1.3293 3.1946 0
M  V30 49 H 1.4754 1.2348 3.0642 0
M  V30 50 H 5.2609 1.2081 -1.2548 0
M  V30 51 H 7.6244 0.8544 -1.8485 0
M  V30 52 H 13.6748 0.4739 -1.1974 0
M  V30 53 H 13.1002 2.6160 -0.1123 0
M  V30 54 H 9.0865 1.4397 0.3625 0
M  V30 55 H 12.9786 -1.7563 -1.9834 0
M  V30 56 H 11.2261 -3.4561 -2.2847 0
M  V30 57 H 8.9130 -3.0123 -1.5809 0
M  V30 58 H 7.8385 -2.4128 0.9585 0
M  V30 59 H 5.4727 -2.0622 1.5449 0
M  V30 60 H -5.6091 -0.8457 2.6735 0
M  V30 61 H -8.0411 -1.0197 2.3296 0
M  V30 62 H -8.7657 2.3266 0.0833 0
M  V30 63 H -12.5929 3.8222 -0.8308 0
M  V30 END ATOM
M  V30 BEGIN BOND
M  V30 1 2 1 2
M  V30 2 1 2 3
M  V30 3 1 3 4
M  V30 4 2 4 5
M  V30 5 1 5 6
M  V30 6 2 6 7
M  V30 7 1 4 8
M  V30 8 2 8 9
M  V30 9 1 9 10
M  V30 10 2 10 11
M  V30 11 1 11 12
M  V30 12 3 12 13
M  V30 13 1 13 14
M  V30 14 2 14 15
M  V30 15 1 15 16
M  V30 16 2 16 17
M  V30 17 1 17 18
M  V30 18 3 18 19
M  V30 19 1 19 20
M  V30 20 2 20 21
M  V30 21 1 21 22
M  V30 22 2 22 23
M  V30 23 1 23 24
M  V30 24 1 24 25
M  V30 25 1 25 26
M  V30 26 2 26 27
M  V30 27 1 27 28
M  V30 28 2 28 29
M  V30 29 1 29 30
M  V30 30 1 26 31
M  V30 31 2 31 32
M  V30 32 1 32 33
M  V30 33 1 23 34
M  V30 34 2 34 35
M  V30 35 1 17 36
M  V30 36 1 11 37
M  V30 37 2 37 38
M  V30 38 2 3 39
M  V30 39 1 39 40
M  V30 40 2 40 41
M  V30 41 1 41 1
M  V30 42 1 7 2
M  V30 43 1 38 8
M  V30 44 1 36 14
M  V30 45 1 35 20
M  V30 46 2 33 24
M  V30 47 2 30 25
M  V30 48 1 1 42
M  V30 49 1 5 43
M  V30 50 1 6 44
M  V30 51 1 7 45
M  V30 52 1 9 46
M  V30 53 1 10 47
M  V30 54 1 15 48
M  V30 55 1 16 49
M  V30 56 1 21 50
M  V30 57 1 22 51
M  V30 58 1 27 52
M  V30 59 1 28 53
M  V30 60 1 30 54
M  V30 61 1 31 55
M  V30 62 1 32 56
M  V30 63 1 33 57
M  V30 64 1 34 58
M  V30 65 1 35 59
M  V30 66 1 37 60
M  V30 67 1 38 61
M  V30 68 1 39 62
M  V30 69 1 41 63
M  V30 END BOND
M  V30 END CTAB
M  END

$$$$
