
     RDKit          3D

  0  0  0  0  0  0  0  0  0  0999 V3000
M  V30 BEGIN CTAB
M  V30 COUNTS 63 69 0 0 0
M  V30 BEGIN ATOM
M  V30 1 C 12.7610 0.7662 -0.6154 0
M  V30 2 C 11.7457 -0.1982 -0.5676 0
M  V30 3 C 10.3928 0.2080 -0.4390 0
M  V30 4 C 9.3704 -0.7759 -0.3976 0
M  V30 5 C 9.7220 -2.1348 -0.4521 0
M  V30 6 C 11.0568 -2.5220 -0.5722 0
M  V30 7 C 12.0649 -1.5613 -0.6367 0
M  V30 8 C 7.9336 -0.4275 -0.3170 0
M  V30 9 C 7.1633 -0.8584 0.7749 0
M  V30 10 C 5.8009 -0.5510 0.8416 0
M  V30 11 C 5.1950 0.1816 -0.1868 0
M  V30 12 C 3.7923 0.4955 -0.1189 0
M  V30 13 C 2.6171 0.7576 -0.0626 0
M  V30 14 C 1.2173 1.0689 0.0037 0
M  V30 15 C 0.6637 2.3309 -0.1649 0
M  V30 16 C -0.7314 2.3338 -0.0502 0
M  V30 17 C -1.2554 1.0741 0.2068 0
M  V30 18 C -2.6486 0.7686 0.3693 0
M  V30 19 C -3.8184 0.5118 0.5048 0
M  V30 20 C -5.2151 0.2046 0.6654 0
M  V30 21 C -5.6314 -1.1271 0.7868 0
M  V30 22 C -6.9886 -1.4262 0.9408 0
M  V30 23 C -7.9420 -0.3960 0.9652 0
M  V30 24 C -9.3763 -0.7138 1.1492 0
M  V30 25 C -10.3595 -0.3901 0.1780 0
M  V30 26 C -11.7223 -0.6804 0.4428 0
M  V30 27 C -12.7004 -0.3592 -0.5077 0
M  V30 28 C -12.3197 0.2304 -1.7121 0
M  V30 29 N -11.0099 0.4834 -1.9639 0
M  V30 30 C -10.0337 0.1898 -1.0650 0
M  V30 31 C -12.0865 -1.2955 1.6485 0
M  V30 32 C -11.1122 -1.6308 2.5875 0
M  V30 33 C -9.7692 -1.3450 2.3410 0
M  V30 34 C -7.5181 0.9387 0.8576 0
M  V30 35 C -6.1608 1.2369 0.7034 0
M  V30 36 S -0.0060 -0.0475 0.2934 0
M  V30 37 C 5.9561 0.6028 -1.2843 0
M  V30 38 C 7.3183 0.2955 -1.3521 0
M  V30 39 C 10.1214 1.5871 -0.3291 0
M  V30 40 N 11.1335 2.4931 -0.3755 0
M  V30 41 C 12.4298 2.1169 -0.5211 0
M  V30 42 H 13.8005 0.4781 -0.7191 0
M  V30 43 H 8.9551 -2.8994 -0.4189 0
M  V30 44 H 11.3105 -3.5732 -0.6214 0
M  V30 45 H 13.0949 -1.8838 -0.7330 0
M  V30 46 H 7.6198 -1.4265 1.5763 0
M  V30 47 H 5.2203 -0.8855 1.6929 0
M  V30 48 H 1.2461 3.2211 -0.3649 0
M  V30 49 H -1.3349 3.2264 -0.1530 0
M  V30 50 H -4.9076 -1.9329 0.7627 0
M  V30 51 H -7.2977 -2.4602 1.0337 0
M  V30 52 H -13.7478 -0.5669 -0.3233 0
M  V30 53 H -13.0670 0.4801 -2.4534 0
M  V30 54 H -9.0091 0.4006 -1.3369 0
M  V30 55 H -13.1242 -1.5239 1.8612 0
M  V30 56 H -11.3996 -2.1100 3.5145 0
M  V30 57 H -9.0317 -1.6021 3.0921 0
M  V30 58 H -8.2390 1.7464 0.8947 0
M  V30 59 H -5.8489 2.2709 0.6165 0
M  V30 60 H 5.4960 1.1647 -2.0883 0
M  V30 61 H 7.8938 0.6179 -2.2113 0
M  V30 62 H 9.1138 1.9537 -0.1928 0
M  V30 63 H 13.2067 2.8690 -0.5550 0
M  V30 END ATOM
M  V30 BEGIN BOND
M  V30 1 2 1 2
M  V30 2 1 2 3
M  V30 3 1 3 4
M  V30 4 2 4 5
M  V30 5 1 5 6
M  V30 6 2 6 7
M  V30 7 1 4 8
M  V30 8 2 8 9
M  V30 9 1 9 10
M  V30 10 2 10 11
M  V30 11 1 11 12
M  V30 12 3 12 13
M  V30 13 1 13 14
M  V30 14 2 14 15
M  V30 15 1 15 16
M  V30 16 2 16 17
M  V30 17 1 17 18
M  V30 18 3 18 19
M  V30 19 1 19 20
M  V30 20 2 20 21
M  V30 21 1 21 22
M  V30 22 2 22 23
M  V30 23 1 23 24
M  V30 24 1 24 25
M  V30 25 1 25 26
M  V30 26 2 26 27
M  V30 27 1 27 28
M  V30 28 2 28 29
M  V30 29 1 29 30
M  V30 30 1 26 31
M  V30 31 2 31 32
M  V30 32 1 32 33
M  V30 33 1 23 34
M  V30 34 2 34 35
M  V30 35 1 17 36
M  V30 36 1 11 37
M  V30 37 2 37 38
M  V30 38 2 3 39
M  V30 39 1 39 40
M  V30 40 2 40 41
M  V30 41 1 41 1
M  V30 42 1 7 2
M  V30 43 1 38 8
M  V30 44 1 36 14
M  V30 45 1 35 20
M  V30 46 2 33 24
M  V30 47 2 30 25
M  V30 48 1 1 42
M  V30 49 1 5 43
M  V30 50 1 6 44
M  V30 51 1 7 45
M  V30 52 1 9 46
M  V30 53 1 10 47
M  V30 54 1 15 48
M  V30 55 1 16 49
M  V30 56 1 21 50
M  V30 57 1 22 51
M  V30 58 1 27 52
M  V30 59 1 28 53
M  V30 60 1 30 54
M  V30 61 1 31 55
M  V30 62 1 32 56
M  V30 63 1 33 57
M  V30 64 1 34 58
M  V30 65 1 35 59
M  V30 66 1 37 60
M  V30 67 1 38 61
M  V30 68 1 39 62
M  V30 69 1 41 63
M  V30 END BOND
M  V30 END CTAB
M  END

$$$$
