
     RDKit          3D

  0  0  0  0  0  0  0  0  0  0999 V3000
M  V30 BEGIN CTAB
M  V30 COUNTS 63 69 0 0 0
M  V30 BEGIN ATOM
M  V30 1 C -12.5733 -0.2150 -1.8927 0
M  V30 2 C -11.6889 -0.6270 -0.8872 0
M  V30 3 C -10.3080 -0.3207 -0.9937 0
M  V30 4 C -9.4201 -0.7376 0.0324 0
M  V30 5 C -9.9224 -1.4732 1.1186 0
M  V30 6 C -11.2819 -1.7732 1.2093 0
M  V30 7 C -12.1639 -1.3482 0.2169 0
M  V30 8 C -7.9755 -0.4143 0.0132 0
M  V30 9 C -7.5452 0.9215 0.0675 0
M  V30 10 C -6.1800 1.2228 0.0612 0
M  V30 11 C -5.2335 0.1919 0.0107 0
M  V30 12 C -3.8287 0.5036 -0.0069 0
M  V30 13 C -2.6525 0.7669 -0.0265 0
M  V30 14 C -1.2525 1.0828 -0.0546 0
M  V30 15 C -0.7080 2.2876 -0.4783 0
M  V30 16 C 0.6895 2.3101 -0.4043 0
M  V30 17 C 1.2248 1.1225 0.0761 0
M  V30 18 C 2.6232 0.8522 0.2542 0
M  V30 19 C 3.7981 0.6270 0.4012 0
M  V30 20 C 5.2016 0.3606 0.5739 0
M  V30 21 C 5.9135 0.9875 1.6041 0
M  V30 22 C 7.2786 0.7336 1.7685 0
M  V30 23 C 7.9454 -0.1424 0.8972 0
M  V30 24 C 9.3870 -0.4230 1.0838 0
M  V30 25 C 10.3565 -0.1227 0.0916 0
M  V30 26 C 11.7142 -0.4634 0.3187 0
M  V30 27 C 12.6773 -0.1757 -0.6575 0
M  V30 28 C 12.2907 0.4572 -1.8376 0
M  V30 29 N 10.9918 0.7988 -2.0347 0
M  V30 30 C 10.0292 0.5326 -1.1130 0
M  V30 31 C 12.0912 -1.0770 1.5211 0
M  V30 32 C 11.1364 -1.3481 2.5000 0
M  V30 33 C 9.7969 -1.0232 2.2857 0
M  V30 34 C 7.2238 -0.7800 -0.1253 0
M  V30 35 C 5.8589 -0.5257 -0.2886 0
M  V30 36 S -0.0178 0.0406 0.4106 0
M  V30 37 C -5.6574 -1.1423 -0.0269 0
M  V30 38 C -7.0225 -1.4447 -0.0210 0
M  V30 39 C -9.8677 0.3692 -2.1416 0
M  V30 40 N -10.7553 0.7496 -3.0980 0
M  V30 41 C -12.0821 0.4811 -2.9960 0
M  V30 42 H -13.6328 -0.4337 -1.8286 0
M  V30 43 H -9.2588 -1.8022 1.9093 0
M  V30 44 H -11.6545 -2.3339 2.0569 0
M  V30 45 H -13.2165 -1.5896 0.3084 0
M  V30 46 H -8.2673 1.7274 0.1134 0
M  V30 47 H -5.8627 2.2581 0.0960 0
M  V30 48 H -1.2988 3.1230 -0.8315 0
M  V30 49 H 1.2869 3.1647 -0.6941 0
M  V30 50 H 5.4139 1.6721 2.2789 0
M  V30 51 H 7.8180 1.2253 2.5689 0
M  V30 52 H 13.7191 -0.4328 -0.5069 0
M  V30 53 H 13.0272 0.6856 -2.5965 0
M  V30 54 H 9.0178 0.8486 -1.3254 0
M  V30 55 H 13.1258 -1.3399 1.7067 0
M  V30 56 H 11.4350 -1.8180 3.4282 0
M  V30 57 H 9.0709 -1.2565 3.0554 0
M  V30 58 H 7.7192 -1.4733 -0.7943 0
M  V30 59 H 5.3164 -1.0202 -1.0854 0
M  V30 60 H -4.9335 -1.9477 -0.0625 0
M  V30 61 H -7.3376 -2.4806 -0.0531 0
M  V30 62 H -8.8228 0.5988 -2.2944 0
M  V30 63 H -12.7565 0.8023 -3.7784 0
M  V30 END ATOM
M  V30 BEGIN BOND
M  V30 1 2 1 2
M  V30 2 1 2 3
M  V30 3 1 3 4
M  V30 4 2 4 5
M  V30 5 1 5 6
M  V30 6 2 6 7
M  V30 7 1 4 8
M  V30 8 2 8 9
M  V30 9 1 9 10
M  V30 10 2 10 11
M  V30 11 1 11 12
M  V30 12 3 12 13
M  V30 13 1 13 14
M  V30 14 2 14 15
M  V30 15 1 15 16
M  V30 16 2 16 17
M  V30 17 1 17 18
M  V30 18 3 18 19
M  V30 19 1 19 20
M  V30 20 2 20 21
M  V30 21 1 21 22
M  V30 22 2 22 23
M  V30 23 1 23 24
M  V30 24 1 24 25
M  V30 25 1 25 26
M  V30 26 2 26 27
M  V30 27 1 27 28
M  V30 28 2 28 29
M  V30 29 1 29 30
M  V30 30 1 26 31
M  V30 31 2 31 32
M  V30 32 1 32 33
M  V30 33 1 23 34
M  V30 34 2 34 35
M  V30 35 1 17 36
M  V30 36 1 11 37
M  V30 37 2 37 38
M  V30 38 2 3 39
M  V30 39 1 39 40
M  V30 40 2 40 41
M  V30 41 1 41 1
M  V30 42 1 7 2
M  V30 43 1 38 8
M  V30 44 1 36 14
M  V30 45 1 35 20
M  V30 46 2 33 24
M  V30 47 2 30 25
M  V30 48 1 1 42
M  V30 49 1 5 43
M  V30 50 1 6 44
M  V30 51 1 7 45
M  V30 52 1 9 46
M  V30 53 1 10 47
M  V30 54 1 15 48
M  V30 55 1 16 49
M  V30 56 1 21 50
M  V30 57 1 22 51
M  V30 58 1 27 52
M  V30 59 1 28 53
M  V30 60 1 30 54
M  V30 61 1 31 55
M  V30 62 1 32 56
M  V30 63 1 33 57
M  V30 64 1 34 58
M  V30 65 1 35 59
M  V30 66 1 37 60
M  V30 67 1 38 61
M  V30 68 1 39 62
M  V30 69 1 41 63
M  V30 END BOND
M  V30 END CTAB
M  END

$$$$
