
     RDKit          3D

  0  0  0  0  0  0  0  0  0  0999 V3000
M  V30 BEGIN CTAB
M  V30 COUNTS 63 69 0 0 0
M  V30 BEGIN ATOM
M  V30 1 C 12.7435 -1.1499 0.3346 0
M  V30 2 C 11.6983 -0.6494 1.1219 0
M  V30 3 C 10.3757 -0.6334 0.6105 0
M  V30 4 C 9.3218 -0.1329 1.4189 0
M  V30 5 C 9.6157 0.3691 2.6974 0
M  V30 6 C 10.9220 0.3553 3.1862 0
M  V30 7 C 11.9585 -0.1577 2.4083 0
M  V30 8 C 7.9083 -0.1405 0.9779 0
M  V30 9 C 7.2549 -1.3547 0.7087 0
M  V30 10 C 5.9126 -1.3618 0.3179 0
M  V30 11 C 5.2079 -0.1569 0.2037 0
M  V30 12 C 3.8245 -0.1671 -0.1913 0
M  V30 13 C 2.6652 -0.1808 -0.5198 0
M  V30 14 C 1.2831 -0.2026 -0.9073 0
M  V30 15 C 0.7877 -0.7189 -2.0973 0
M  V30 16 C -0.6052 -0.6214 -2.1956 0
M  V30 17 C -1.1858 -0.0298 -1.0817 0
M  V30 18 C -2.5919 0.1887 -0.8914 0
M  V30 19 C -3.7723 0.3691 -0.7275 0
M  V30 20 C -5.1809 0.5818 -0.5276 0
M  V30 21 C -5.7350 1.8514 -0.7324 0
M  V30 22 C -7.1034 2.0590 -0.5347 0
M  V30 23 C -7.9306 0.9966 -0.1364 0
M  V30 24 C -9.3731 1.2279 0.1061 0
M  V30 25 C -10.3877 0.5555 -0.6247 0
M  V30 26 C -11.7495 0.7896 -0.3027 0
M  V30 27 C -12.7578 0.1267 -1.0151 0
M  V30 28 C -12.4100 -0.7472 -2.0440 0
M  V30 29 N -11.1041 -0.9471 -2.3578 0
M  V30 30 C -10.0985 -0.3249 -1.6874 0
M  V30 31 C -12.0836 1.6889 0.7195 0
M  V30 32 C -11.0816 2.3617 1.4176 0
M  V30 33 C -9.7389 2.1361 1.1137 0
M  V30 34 C -7.3671 -0.2716 0.0808 0
M  V30 35 C -5.9993 -0.4788 -0.1193 0
M  V30 36 S 0.0107 0.3732 0.0285 0
M  V30 37 C 5.8504 1.0557 0.4842 0
M  V30 38 C 7.1939 1.0640 0.8735 0
M  V30 39 C 10.1670 -1.0971 -0.7044 0
M  V30 40 N 11.2068 -1.5713 -1.4396 0
M  V30 41 C 12.4728 -1.6133 -0.9517 0
M  V30 42 H 13.7601 -1.1777 0.7084 0
M  V30 43 H 8.8241 0.7561 3.3276 0
M  V30 44 H 11.1306 0.7378 4.1771 0
M  V30 45 H 12.9651 -0.1639 2.8093 0
M  V30 46 H 7.7848 -2.2945 0.8054 0
M  V30 47 H 5.4232 -2.3059 0.1104 0
M  V30 48 H 1.4092 -1.1557 -2.8681 0
M  V30 49 H -1.1677 -0.9755 -3.0500 0
M  V30 50 H -5.1094 2.6798 -1.0425 0
M  V30 51 H -7.5195 3.0463 -0.6943 0
M  V30 52 H -13.8041 0.2864 -0.7815 0
M  V30 53 H -13.1812 -1.2624 -2.6012 0
M  V30 54 H -9.0817 -0.5149 -2.0012 0
M  V30 55 H -13.1202 1.8772 0.9736 0
M  V30 56 H -11.3465 3.0583 2.2026 0
M  V30 57 H -8.9780 2.6602 1.6799 0
M  V30 58 H -7.9872 -1.0966 0.4094 0
M  V30 59 H -5.5795 -1.4632 0.0493 0
M  V30 60 H 5.3129 1.9932 0.4048 0
M  V30 61 H 7.6787 2.0084 1.0895 0
M  V30 62 H 9.1878 -1.0750 -1.1606 0
M  V30 63 H 13.2733 -1.9998 -1.5681 0
M  V30 END ATOM
M  V30 BEGIN BOND
M  V30 1 2 1 2
M  V30 2 1 2 3
M  V30 3 1 3 4
M  V30 4 2 4 5
M  V30 5 1 5 6
M  V30 6 2 6 7
M  V30 7 1 4 8
M  V30 8 2 8 9
M  V30 9 1 9 10
M  V30 10 2 10 11
M  V30 11 1 11 12
M  V30 12 3 12 13
M  V30 13 1 13 14
M  V30 14 2 14 15
M  V30 15 1 15 16
M  V30 16 2 16 17
M  V30 17 1 17 18
M  V30 18 3 18 19
M  V30 19 1 19 20
M  V30 20 2 20 21
M  V30 21 1 21 22
M  V30 22 2 22 23
M  V30 23 1 23 24
M  V30 24 1 24 25
M  V30 25 1 25 26
M  V30 26 2 26 27
M  V30 27 1 27 28
M  V30 28 2 28 29
M  V30 29 1 29 30
M  V30 30 1 26 31
M  V30 31 2 31 32
M  V30 32 1 32 33
M  V30 33 1 23 34
M  V30 34 2 34 35
M  V30 35 1 17 36
M  V30 36 1 11 37
M  V30 37 2 37 38
M  V30 38 2 3 39
M  V30 39 1 39 40
M  V30 40 2 40 41
M  V30 41 1 41 1
M  V30 42 1 7 2
M  V30 43 1 38 8
M  V30 44 1 36 14
M  V30 45 1 35 20
M  V30 46 2 33 24
M  V30 47 2 30 25
M  V30 48 1 1 42
M  V30 49 1 5 43
M  V30 50 1 6 44
M  V30 51 1 7 45
M  V30 52 1 9 46
M  V30 53 1 10 47
M  V30 54 1 15 48
M  V30 55 1 16 49
M  V30 56 1 21 50
M  V30 57 1 22 51
M  V30 58 1 27 52
M  V30 59 1 28 53
M  V30 60 1 30 54
M  V30 61 1 31 55
M  V30 62 1 32 56
M  V30 63 1 33 57
M  V30 64 1 34 58
M  V30 65 1 35 59
M  V30 66 1 37 60
M  V30 67 1 38 61
M  V30 68 1 39 62
M  V30 69 1 41 63
M  V30 END BOND
M  V30 END CTAB
M  END

$$$$
