
     RDKit          3D

  0  0  0  0  0  0  0  0  0  0999 V3000
M  V30 BEGIN CTAB
M  V30 COUNTS 63 69 0 0 0
M  V30 BEGIN ATOM
M  V30 1 C 12.2453 -1.1105 -0.3868 0
M  V30 2 C 11.5276 -0.1418 0.3271 0
M  V30 3 C 10.1197 -0.0553 0.1784 0
M  V30 4 C 9.4003 0.9255 0.9101 0
M  V30 5 C 10.1016 1.8129 1.7430 0
M  V30 6 C 11.4873 1.7218 1.8764 0
M  V30 7 C 12.1984 0.7465 1.1789 0
M  V30 8 C 7.9258 1.0434 0.8455 0
M  V30 9 C 7.1085 -0.0102 1.2867 0
M  V30 10 C 5.7164 0.1122 1.2444 0
M  V30 11 C 5.1295 1.2922 0.7706 0
M  V30 12 C 3.6966 1.4180 0.7273 0
M  V30 13 C 2.4964 1.5238 0.6905 0
M  V30 14 C 1.0671 1.6502 0.6461 0
M  V30 15 C 0.3425 2.7551 1.0725 0
M  V30 16 C -1.0385 2.5983 0.9066 0
M  V30 17 C -1.3807 1.3723 0.3520 0
M  V30 18 C -2.7164 0.9320 0.0645 0
M  V30 19 C -3.8379 0.5623 -0.1775 0
M  V30 20 C -5.1768 0.1213 -0.4668 0
M  V30 21 C -5.6093 -1.1389 -0.0353 0
M  V30 22 C -6.9097 -1.5682 -0.3173 0
M  V30 23 C -7.7923 -0.7359 -1.0252 0
M  V30 24 C -9.1623 -1.1969 -1.3458 0
M  V30 25 C -10.1179 -1.5041 -0.3421 0
M  V30 26 C -11.3960 -1.9882 -0.7219 0
M  V30 27 C -12.3437 -2.2992 0.2621 0
M  V30 28 C -12.0234 -2.1149 1.6062 0
M  V30 29 N -10.8049 -1.6300 1.9570 0
M  V30 30 C -9.8588 -1.3209 1.0315 0
M  V30 31 C -11.7114 -2.1450 -2.0786 0
M  V30 32 C -10.7751 -1.8195 -3.0588 0
M  V30 33 C -9.5128 -1.3481 -2.6976 0
M  V30 34 C -7.3495 0.5210 -1.4671 0
M  V30 35 C -6.0487 0.9493 -1.1848 0
M  V30 36 S 0.0129 0.4772 0.0636 0
M  V30 37 C 5.9401 2.3509 0.3426 0
M  V30 38 C 7.3325 2.2292 0.3841 0
M  V30 39 C 9.4916 -0.9404 -0.7215 0
M  V30 40 N 10.2219 -1.8644 -1.3998 0
M  V30 41 C 11.5668 -1.9709 -1.2485 0
M  V30 42 H 13.3204 -1.1977 -0.2837 0
M  V30 43 H 9.5692 2.5699 2.3065 0
M  V30 44 H 12.0119 2.4079 2.5288 0
M  V30 45 H 13.2739 0.6913 1.2993 0
M  V30 46 H 7.5505 -0.9241 1.6645 0
M  V30 47 H 5.0986 -0.7106 1.5836 0
M  V30 48 H 0.7943 3.6460 1.4893 0
M  V30 49 H -1.7607 3.3559 1.1824 0
M  V30 50 H -4.9410 -1.7899 0.5155 0
M  V30 51 H -7.2290 -2.5490 0.0132 0
M  V30 52 H -13.3238 -2.6757 -0.0057 0
M  V30 53 H -12.7491 -2.3500 2.3733 0
M  V30 54 H -8.9164 -0.9215 1.3785 0
M  V30 55 H -12.6851 -2.5123 -2.3809 0
M  V30 56 H -11.0268 -1.9383 -4.1048 0
M  V30 57 H -8.7971 -1.1156 -3.4770 0
M  V30 58 H -8.0138 1.1705 -2.0239 0
M  V30 59 H -5.7229 1.9243 -1.5270 0
M  V30 60 H 5.4963 3.2696 -0.0219 0
M  V30 61 H 7.9483 3.0555 0.0506 0
M  V30 62 H 8.4271 -0.8976 -0.9029 0
M  V30 63 H 12.1122 -2.7207 -1.8059 0
M  V30 END ATOM
M  V30 BEGIN BOND
M  V30 1 2 1 2
M  V30 2 1 2 3
M  V30 3 1 3 4
M  V30 4 2 4 5
M  V30 5 1 5 6
M  V30 6 2 6 7
M  V30 7 1 4 8
M  V30 8 2 8 9
M  V30 9 1 9 10
M  V30 10 2 10 11
M  V30 11 1 11 12
M  V30 12 3 12 13
M  V30 13 1 13 14
M  V30 14 2 14 15
M  V30 15 1 15 16
M  V30 16 2 16 17
M  V30 17 1 17 18
M  V30 18 3 18 19
M  V30 19 1 19 20
M  V30 20 2 20 21
M  V30 21 1 21 22
M  V30 22 2 22 23
M  V30 23 1 23 24
M  V30 24 1 24 25
M  V30 25 1 25 26
M  V30 26 2 26 27
M  V30 27 1 27 28
M  V30 28 2 28 29
M  V30 29 1 29 30
M  V30 30 1 26 31
M  V30 31 2 31 32
M  V30 32 1 32 33
M  V30 33 1 23 34
M  V30 34 2 34 35
M  V30 35 1 17 36
M  V30 36 1 11 37
M  V30 37 2 37 38
M  V30 38 2 3 39
M  V30 39 1 39 40
M  V30 40 2 40 41
M  V30 41 1 41 1
M  V30 42 1 7 2
M  V30 43 1 38 8
M  V30 44 1 36 14
M  V30 45 1 35 20
M  V30 46 2 33 24
M  V30 47 2 30 25
M  V30 48 1 1 42
M  V30 49 1 5 43
M  V30 50 1 6 44
M  V30 51 1 7 45
M  V30 52 1 9 46
M  V30 53 1 10 47
M  V30 54 1 15 48
M  V30 55 1 16 49
M  V30 56 1 21 50
M  V30 57 1 22 51
M  V30 58 1 27 52
M  V30 59 1 28 53
M  V30 60 1 30 54
M  V30 61 1 31 55
M  V30 62 1 32 56
M  V30 63 1 33 57
M  V30 64 1 34 58
M  V30 65 1 35 59
M  V30 66 1 37 60
M  V30 67 1 38 61
M  V30 68 1 39 62
M  V30 69 1 41 63
M  V30 END BOND
M  V30 END CTAB
M  END

$$$$
