
     RDKit          3D

  0  0  0  0  0  0  0  0  0  0999 V3000
M  V30 BEGIN CTAB
M  V30 COUNTS 63 69 0 0 0
M  V30 BEGIN ATOM
M  V30 1 C 11.9348 0.2640 -2.4034 0
M  V30 2 C 10.9323 0.0670 -3.3621 0
M  V30 3 C 9.5697 0.0686 -2.9681 0
M  V30 4 C 8.5612 -0.1395 -3.9451 0
M  V30 5 C 8.9315 -0.3092 -5.2895 0
M  V30 6 C 10.2748 -0.3017 -5.6657 0
M  V30 7 C 11.2724 -0.1221 -4.7087 0
M  V30 8 C 7.1226 -0.2074 -3.6013 0
M  V30 9 C 6.2201 0.7142 -4.1556 0
M  V30 10 C 4.8576 0.6364 -3.8516 0
M  V30 11 C 4.3845 -0.3681 -2.9983 0
M  V30 12 C 2.9815 -0.4502 -2.6889 0
M  V30 13 C 1.8061 -0.5203 -2.4309 0
M  V30 14 C 0.4061 -0.6052 -2.1253 0
M  V30 15 C -0.5760 -1.0904 -2.9781 0
M  V30 16 C -1.8556 -1.0555 -2.4120 0
M  V30 17 C -1.8620 -0.5430 -1.1216 0
M  V30 18 C -3.0246 -0.3858 -0.2942 0
M  V30 19 C -4.0019 -0.2538 0.3990 0
M  V30 20 C -5.1700 -0.0957 1.2245 0
M  V30 21 C -6.0109 1.0098 1.0455 0
M  V30 22 C -7.1482 1.1624 1.8445 0
M  V30 23 C -7.4489 0.2149 2.8358 0
M  V30 24 C -8.6680 0.3650 3.6625 0
M  V30 25 C -8.6196 0.5077 5.0739 0
M  V30 26 C -9.8305 0.5989 5.8068 0
M  V30 27 C -9.7925 0.7350 7.2007 0
M  V30 28 C -8.5611 0.7934 7.8513 0
M  V30 29 N -7.4083 0.7269 7.1375 0
M  V30 30 C -7.4052 0.5910 5.7852 0
M  V30 31 C -11.0605 0.5626 5.1356 0
M  V30 32 C -11.0989 0.4446 3.7471 0
M  V30 33 C -9.9148 0.3484 3.0158 0
M  V30 34 C -6.6090 -0.8983 3.0033 0
M  V30 35 C -5.4720 -1.0500 2.2040 0
M  V30 36 S -0.2950 -0.1316 -0.6722 0
M  V30 37 C 5.2788 -1.2976 -2.4528 0
M  V30 38 C 6.6413 -1.2210 -2.7566 0
M  V30 39 C 9.2715 0.3068 -1.6110 0
M  V30 40 N 10.2713 0.4985 -0.7105 0
M  V30 41 C 11.5795 0.4753 -1.0722 0
M  V30 42 H 12.9821 0.2599 -2.6815 0
M  V30 43 H 8.1751 -0.4665 -6.0491 0
M  V30 44 H 10.5441 -0.4424 -6.7046 0
M  V30 45 H 12.3098 -0.1233 -5.0219 0
M  V30 46 H 6.5729 1.4954 -4.8178 0
M  V30 47 H 4.1735 1.3575 -4.2827 0
M  V30 48 H -0.3770 -1.4581 -3.9765 0
M  V30 49 H -2.7442 -1.3938 -2.9290 0
M  V30 50 H -5.7886 1.7517 0.2879 0
M  V30 51 H -7.7911 2.0214 1.6954 0
M  V30 52 H -10.7056 0.8011 7.7804 0
M  V30 53 H -8.5211 0.9004 8.9271 0
M  V30 54 H -6.4518 0.5627 5.2771 0
M  V30 55 H -11.9921 0.6332 5.6847 0
M  V30 56 H -12.0519 0.4219 3.2343 0
M  V30 57 H -9.9707 0.2428 1.9389 0
M  V30 58 H -6.8372 -1.6486 3.7507 0
M  V30 59 H -4.8315 -1.9120 2.3469 0
M  V30 60 H 4.9228 -2.0828 -1.7966 0
M  V30 61 H 7.3212 -1.9523 -2.3369 0
M  V30 62 H 8.2508 0.3563 -1.2590 0
M  V30 63 H 12.3462 0.6305 -0.3248 0
M  V30 END ATOM
M  V30 BEGIN BOND
M  V30 1 2 1 2
M  V30 2 1 2 3
M  V30 3 1 3 4
M  V30 4 2 4 5
M  V30 5 1 5 6
M  V30 6 2 6 7
M  V30 7 1 4 8
M  V30 8 2 8 9
M  V30 9 1 9 10
M  V30 10 2 10 11
M  V30 11 1 11 12
M  V30 12 3 12 13
M  V30 13 1 13 14
M  V30 14 2 14 15
M  V30 15 1 15 16
M  V30 16 2 16 17
M  V30 17 1 17 18
M  V30 18 3 18 19
M  V30 19 1 19 20
M  V30 20 2 20 21
M  V30 21 1 21 22
M  V30 22 2 22 23
M  V30 23 1 23 24
M  V30 24 1 24 25
M  V30 25 1 25 26
M  V30 26 2 26 27
M  V30 27 1 27 28
M  V30 28 2 28 29
M  V30 29 1 29 30
M  V30 30 1 26 31
M  V30 31 2 31 32
M  V30 32 1 32 33
M  V30 33 1 23 34
M  V30 34 2 34 35
M  V30 35 1 17 36
M  V30 36 1 11 37
M  V30 37 2 37 38
M  V30 38 2 3 39
M  V30 39 1 39 40
M  V30 40 2 40 41
M  V30 41 1 41 1
M  V30 42 1 7 2
M  V30 43 1 38 8
M  V30 44 1 36 14
M  V30 45 1 35 20
M  V30 46 2 33 24
M  V30 47 2 30 25
M  V30 48 1 1 42
M  V30 49 1 5 43
M  V30 50 1 6 44
M  V30 51 1 7 45
M  V30 52 1 9 46
M  V30 53 1 10 47
M  V30 54 1 15 48
M  V30 55 1 16 49
M  V30 56 1 21 50
M  V30 57 1 22 51
M  V30 58 1 27 52
M  V30 59 1 28 53
M  V30 60 1 30 54
M  V30 61 1 31 55
M  V30 62 1 32 56
M  V30 63 1 33 57
M  V30 64 1 34 58
M  V30 65 1 35 59
M  V30 66 1 37 60
M  V30 67 1 38 61
M  V30 68 1 39 62
M  V30 69 1 41 63
M  V30 END BOND
M  V30 END CTAB
M  END

$$$$
