
     RDKit          3D

  0  0  0  0  0  0  0  0  0  0999 V3000
M  V30 BEGIN CTAB
M  V30 COUNTS 63 69 0 0 0
M  V30 BEGIN ATOM
M  V30 1 C 12.0451 1.7768 1.4141 0
M  V30 2 C 11.4275 0.6971 0.7693 0
M  V30 3 C 10.0335 0.7343 0.5099 0
M  V30 4 C 9.4154 -0.3666 -0.1389 0
M  V30 5 C 10.2031 -1.4582 -0.5403 0
M  V30 6 C 11.5743 -1.4806 -0.2849 0
M  V30 7 C 12.1849 -0.4135 0.3722 0
M  V30 8 C 7.9587 -0.4217 -0.3980 0
M  V30 9 C 7.4795 -0.5161 -1.7143 0
M  V30 10 C 6.1052 -0.5900 -1.9605 0
M  V30 11 C 5.1987 -0.5796 -0.8931 0
M  V30 12 C 3.7844 -0.6552 -1.1473 0
M  V30 13 C 2.5996 -0.7183 -1.3603 0
M  V30 14 C 1.1887 -0.7930 -1.6138 0
M  V30 15 C 0.6007 -1.3645 -2.7344 0
M  V30 16 C -0.7971 -1.2932 -2.7126 0
M  V30 17 C -1.2888 -0.6663 -1.5755 0
M  V30 18 C -2.6764 -0.4511 -1.2772 0
M  V30 19 C -3.8416 -0.2710 -1.0263 0
M  V30 20 C -5.2326 -0.0570 -0.7262 0
M  V30 21 C -6.0855 -1.1511 -0.5347 0
M  V30 22 C -7.4368 -0.9439 -0.2423 0
M  V30 23 C -7.9447 0.3607 -0.1290 0
M  V30 24 C -9.3796 0.5835 0.1597 0
M  V30 25 C -9.9911 0.1490 1.3647 0
M  V30 26 C -11.3819 0.3538 1.5533 0
M  V30 27 C -11.9950 -0.0764 2.7374 0
M  V30 28 C -11.2259 -0.6896 3.7251 0
M  V30 29 N -9.8917 -0.8605 3.5429 0
M  V30 30 C -9.2626 -0.4601 2.4067 0
M  V30 31 C -12.1370 0.9939 0.5609 0
M  V30 32 C -11.5244 1.4377 -0.6100 0
M  V30 33 C -10.1585 1.2368 -0.8095 0
M  V30 34 C -7.0885 1.4540 -0.3355 0
M  V30 35 C -5.7373 1.2457 -0.6283 0
M  V30 36 S -0.0073 -0.1981 -0.5930 0
M  V30 37 C 5.6721 -0.4994 0.4225 0
M  V30 38 C 7.0462 -0.4258 0.6697 0
M  V30 39 C 9.3187 1.8893 0.8878 0
M  V30 40 N 9.9534 2.9187 1.5080 0
M  V30 41 C 11.2827 2.8845 1.7813 0
M  V30 42 H 13.1075 1.7666 1.6271 0
M  V30 43 H 9.7487 -2.3057 -1.0395 0
M  V30 44 H 12.1659 -2.3330 -0.5933 0
M  V30 45 H 13.2509 -0.4525 0.5634 0
M  V30 46 H 8.1702 -0.5255 -2.5486 0
M  V30 47 H 5.7497 -0.6560 -2.9818 0
M  V30 48 H 1.1607 -1.8186 -3.5417 0
M  V30 49 H -1.4253 -1.6869 -3.5012 0
M  V30 50 H -5.7066 -2.1630 -0.6141 0
M  V30 51 H -8.0883 -1.7984 -0.1058 0
M  V30 52 H -13.0569 0.0650 2.8997 0
M  V30 53 H -11.6896 -1.0232 4.6437 0
M  V30 54 H -8.1948 -0.6097 2.3346 0
M  V30 55 H -13.1999 1.1576 0.6945 0
M  V30 56 H -12.1124 1.9357 -1.3702 0
M  V30 57 H -9.7077 1.5778 -1.7339 0
M  V30 58 H -7.4666 2.4664 -0.2625 0
M  V30 59 H -5.0870 2.0991 -0.7790 0
M  V30 60 H 4.9799 -0.4969 1.2559 0
M  V30 61 H 7.4004 -0.3740 1.6921 0
M  V30 62 H 8.2623 1.9897 0.6835 0
M  V30 63 H 11.7507 3.7240 2.2777 0
M  V30 END ATOM
M  V30 BEGIN BOND
M  V30 1 2 1 2
M  V30 2 1 2 3
M  V30 3 1 3 4
M  V30 4 2 4 5
M  V30 5 1 5 6
M  V30 6 2 6 7
M  V30 7 1 4 8
M  V30 8 2 8 9
M  V30 9 1 9 10
M  V30 10 2 10 11
M  V30 11 1 11 12
M  V30 12 3 12 13
M  V30 13 1 13 14
M  V30 14 2 14 15
M  V30 15 1 15 16
M  V30 16 2 16 17
M  V30 17 1 17 18
M  V30 18 3 18 19
M  V30 19 1 19 20
M  V30 20 2 20 21
M  V30 21 1 21 22
M  V30 22 2 22 23
M  V30 23 1 23 24
M  V30 24 1 24 25
M  V30 25 1 25 26
M  V30 26 2 26 27
M  V30 27 1 27 28
M  V30 28 2 28 29
M  V30 29 1 29 30
M  V30 30 1 26 31
M  V30 31 2 31 32
M  V30 32 1 32 33
M  V30 33 1 23 34
M  V30 34 2 34 35
M  V30 35 1 17 36
M  V30 36 1 11 37
M  V30 37 2 37 38
M  V30 38 2 3 39
M  V30 39 1 39 40
M  V30 40 2 40 41
M  V30 41 1 41 1
M  V30 42 1 7 2
M  V30 43 1 38 8
M  V30 44 1 36 14
M  V30 45 1 35 20
M  V30 46 2 33 24
M  V30 47 2 30 25
M  V30 48 1 1 42
M  V30 49 1 5 43
M  V30 50 1 6 44
M  V30 51 1 7 45
M  V30 52 1 9 46
M  V30 53 1 10 47
M  V30 54 1 15 48
M  V30 55 1 16 49
M  V30 56 1 21 50
M  V30 57 1 22 51
M  V30 58 1 27 52
M  V30 59 1 28 53
M  V30 60 1 30 54
M  V30 61 1 31 55
M  V30 62 1 32 56
M  V30 63 1 33 57
M  V30 64 1 34 58
M  V30 65 1 35 59
M  V30 66 1 37 60
M  V30 67 1 38 61
M  V30 68 1 39 62
M  V30 69 1 41 63
M  V30 END BOND
M  V30 END CTAB
M  END

$$$$
