
     RDKit          3D

  0  0  0  0  0  0  0  0  0  0999 V3000
M  V30 BEGIN CTAB
M  V30 COUNTS 63 69 0 0 0
M  V30 BEGIN ATOM
M  V30 1 C 12.6107 -0.8213 -1.3790 0
M  V30 2 C 11.6510 -1.0878 -0.3938 0
M  V30 3 C 10.3171 -0.6392 -0.5691 0
M  V30 4 C 9.3507 -0.9179 0.4321 0
M  V30 5 C 9.7421 -1.6052 1.5927 0
M  V30 6 C 11.0583 -2.0368 1.7562 0
M  V30 7 C 12.0083 -1.7872 0.7670 0
M  V30 8 C 7.9296 -0.5262 0.2964 0
M  V30 9 C 7.3483 0.3520 1.2247 0
M  V30 10 C 5.9998 0.7058 1.1120 0
M  V30 11 C 5.2195 0.1779 0.0760 0
M  V30 12 C 3.8308 0.5381 -0.0373 0
M  V30 13 C 2.6668 0.8361 -0.1328 0
M  V30 14 C 1.2792 1.1852 -0.2473 0
M  V30 15 C 0.7845 2.3485 -0.8223 0
M  V30 16 C -0.6140 2.4128 -0.8052 0
M  V30 17 C -1.1988 1.3000 -0.2162 0
M  V30 18 C -2.6094 1.0788 -0.0688 0
M  V30 19 C -3.7934 0.8880 0.0524 0
M  V30 20 C -5.2063 0.6546 0.1937 0
M  V30 21 C -5.9903 1.5283 0.9571 0
M  V30 22 C -7.3634 1.3009 1.0927 0
M  V30 23 C -7.9654 0.2030 0.4572 0
M  V30 24 C -9.4157 -0.0472 0.6177 0
M  V30 25 C -10.3143 -0.0511 -0.4809 0
M  V30 26 C -11.6831 -0.3496 -0.2600 0
M  V30 27 C -12.5762 -0.3615 -1.3395 0
M  V30 28 C -12.1103 -0.0646 -2.6193 0
M  V30 29 N -10.8022 0.2410 -2.8155 0
M  V30 30 C -9.9057 0.2585 -1.7944 0
M  V30 31 C -12.1408 -0.6224 1.0366 0
M  V30 32 C -11.2560 -0.5940 2.1135 0
M  V30 33 C -9.9061 -0.3079 1.9078 0
M  V30 34 C -7.1722 -0.6782 -0.2953 0
M  V30 35 C -5.7994 -0.4504 -0.4298 0
M  V30 36 S 0.0002 0.2326 0.2828 0
M  V30 37 C 5.7915 -0.7085 -0.8452 0
M  V30 38 C 7.1393 -1.0634 -0.7331 0
M  V30 39 C 10.0117 0.0969 -1.7320 0
M  V30 40 N 10.9703 0.3386 -2.6644 0
M  V30 41 C 12.2449 -0.1048 -2.5173 0
M  V30 42 H 13.6343 -1.1586 -1.2675 0
M  V30 43 H 9.0186 -1.8233 2.3692 0
M  V30 44 H 11.3417 -2.5729 2.6527 0
M  V30 45 H 13.0246 -2.1340 0.9123 0
M  V30 46 H 7.9410 0.7664 2.0310 0
M  V30 47 H 5.5658 1.3884 1.8327 0
M  V30 48 H 1.4106 3.1247 -1.2428 0
M  V30 49 H -1.1765 3.2441 -1.2106 0
M  V30 50 H -5.5401 2.3831 1.4473 0
M  V30 51 H -7.9589 1.9831 1.6864 0
M  V30 52 H -13.6246 -0.5926 -1.1941 0
M  V30 53 H -12.7926 -0.0686 -3.4587 0
M  V30 54 H -8.8829 0.5278 -2.0172 0
M  V30 55 H -13.1845 -0.8507 1.2180 0
M  V30 56 H -11.6168 -0.8007 3.1131 0
M  V30 57 H -9.2348 -0.3065 2.7583 0
M  V30 58 H -7.6176 -1.5411 -0.7756 0
M  V30 59 H -5.2007 -1.1364 -1.0171 0
M  V30 60 H 5.1950 -1.1282 -1.6464 0
M  V30 61 H 7.5668 -1.7584 -1.4455 0
M  V30 62 H 9.0214 0.4949 -1.9025 0
M  V30 63 H 12.9787 0.1069 -3.2833 0
M  V30 END ATOM
M  V30 BEGIN BOND
M  V30 1 2 1 2
M  V30 2 1 2 3
M  V30 3 1 3 4
M  V30 4 2 4 5
M  V30 5 1 5 6
M  V30 6 2 6 7
M  V30 7 1 4 8
M  V30 8 2 8 9
M  V30 9 1 9 10
M  V30 10 2 10 11
M  V30 11 1 11 12
M  V30 12 3 12 13
M  V30 13 1 13 14
M  V30 14 2 14 15
M  V30 15 1 15 16
M  V30 16 2 16 17
M  V30 17 1 17 18
M  V30 18 3 18 19
M  V30 19 1 19 20
M  V30 20 2 20 21
M  V30 21 1 21 22
M  V30 22 2 22 23
M  V30 23 1 23 24
M  V30 24 1 24 25
M  V30 25 1 25 26
M  V30 26 2 26 27
M  V30 27 1 27 28
M  V30 28 2 28 29
M  V30 29 1 29 30
M  V30 30 1 26 31
M  V30 31 2 31 32
M  V30 32 1 32 33
M  V30 33 1 23 34
M  V30 34 2 34 35
M  V30 35 1 17 36
M  V30 36 1 11 37
M  V30 37 2 37 38
M  V30 38 2 3 39
M  V30 39 1 39 40
M  V30 40 2 40 41
M  V30 41 1 41 1
M  V30 42 1 7 2
M  V30 43 1 38 8
M  V30 44 1 36 14
M  V30 45 1 35 20
M  V30 46 2 33 24
M  V30 47 2 30 25
M  V30 48 1 1 42
M  V30 49 1 5 43
M  V30 50 1 6 44
M  V30 51 1 7 45
M  V30 52 1 9 46
M  V30 53 1 10 47
M  V30 54 1 15 48
M  V30 55 1 16 49
M  V30 56 1 21 50
M  V30 57 1 22 51
M  V30 58 1 27 52
M  V30 59 1 28 53
M  V30 60 1 30 54
M  V30 61 1 31 55
M  V30 62 1 32 56
M  V30 63 1 33 57
M  V30 64 1 34 58
M  V30 65 1 35 59
M  V30 66 1 37 60
M  V30 67 1 38 61
M  V30 68 1 39 62
M  V30 69 1 41 63
M  V30 END BOND
M  V30 END CTAB
M  END

$$$$
