
     RDKit          3D

  0  0  0  0  0  0  0  0  0  0999 V3000
M  V30 BEGIN CTAB
M  V30 COUNTS 63 69 0 0 0
M  V30 BEGIN ATOM
M  V30 1 C 12.8031 0.0124 -0.2697 0
M  V30 2 C 11.7202 0.7608 -0.7497 0
M  V30 3 C 10.3952 0.3697 -0.4284 0
M  V30 4 C 9.3042 1.1309 -0.9235 0
M  V30 5 C 9.5596 2.2756 -1.6964 0
M  V30 6 C 10.8674 2.6532 -2.0011 0
M  V30 7 C 11.9437 1.8983 -1.5374 0
M  V30 8 C 7.8940 0.7563 -0.6722 0
M  V30 9 C 7.3819 -0.4554 -1.1645 0
M  V30 10 C 6.0441 -0.7965 -0.9441 0
M  V30 11 C 5.2044 0.0745 -0.2387 0
M  V30 12 C 3.8276 -0.2771 -0.0119 0
M  V30 13 C 2.6743 -0.5716 0.1784 0
M  V30 14 C 1.3009 -0.9222 0.4054 0
M  V30 15 C 0.8590 -2.0028 1.1569 0
M  V30 16 C -0.5367 -2.0982 1.2060 0
M  V30 17 C -1.1729 -1.0913 0.4925 0
M  V30 18 C -2.5937 -0.9321 0.3631 0
M  V30 19 C -3.7866 -0.7982 0.2544 0
M  V30 20 C -5.2108 -0.6381 0.1250 0
M  V30 21 C -6.0663 -1.7100 0.4089 0
M  V30 22 C -7.4501 -1.5546 0.2838 0
M  V30 23 C -7.9909 -0.3217 -0.1166 0
M  V30 24 C -9.4546 -0.1600 -0.2705 0
M  V30 25 C -10.3562 -0.3033 0.8165 0
M  V30 26 C -11.7505 -0.1829 0.5856 0
M  V30 27 C -12.6481 -0.3284 1.6516 0
M  V30 28 C -12.1580 -0.5759 2.9328 0
M  V30 29 N -10.8204 -0.6670 3.1459 0
M  V30 30 C -9.9196 -0.5356 2.1368 0
M  V30 31 C -12.2264 0.0906 -0.7040 0
M  V30 32 C -11.3330 0.2526 -1.7619 0
M  V30 33 C -9.9599 0.1305 -1.5485 0
M  V30 34 C -7.1282 0.7455 -0.4134 0
M  V30 35 C -5.7444 0.5890 -0.2885 0
M  V30 36 S -0.0222 -0.0806 -0.2010 0
M  V30 37 C 5.7067 1.2901 0.2423 0
M  V30 38 C 7.0446 1.6320 0.0226 0
M  V30 39 C 10.2181 -0.7563 0.4014 0
M  V30 40 N 11.2935 -1.4551 0.8511 0
M  V30 41 C 12.5652 -1.1027 0.5322 0
M  V30 42 H 13.8231 0.2902 -0.5077 0
M  V30 43 H 8.7390 2.8700 -2.0802 0
M  V30 44 H 11.0470 3.5333 -2.6051 0
M  V30 45 H 12.9515 2.2078 -1.7882 0
M  V30 46 H 8.0188 -1.1330 -1.7199 0
M  V30 47 H 5.6641 -1.7365 -1.3259 0
M  V30 48 H 1.5208 -2.7001 1.6541 0
M  V30 49 H -1.0613 -2.8767 1.7450 0
M  V30 50 H -5.6637 -2.6654 0.7236 0
M  V30 51 H -8.1007 -2.3940 0.4970 0
M  V30 52 H -13.7173 -0.2459 1.4964 0
M  V30 53 H -12.8429 -0.6874 3.7628 0
M  V30 54 H -8.8684 -0.6006 2.3791 0
M  V30 55 H -13.2892 0.1867 -0.8922 0
M  V30 56 H -11.7070 0.4686 -2.7544 0
M  V30 57 H -9.2862 0.2464 -2.3892 0
M  V30 58 H -7.5283 1.6997 -0.7342 0
M  V30 59 H -5.0913 1.4233 -0.5147 0
M  V30 60 H 5.0646 1.9730 0.7856 0
M  V30 61 H 7.4209 2.5754 0.3993 0
M  V30 62 H 9.2338 -1.0804 0.7084 0
M  V30 63 H 13.3947 -1.6858 0.9094 0
M  V30 END ATOM
M  V30 BEGIN BOND
M  V30 1 2 1 2
M  V30 2 1 2 3
M  V30 3 1 3 4
M  V30 4 2 4 5
M  V30 5 1 5 6
M  V30 6 2 6 7
M  V30 7 1 4 8
M  V30 8 2 8 9
M  V30 9 1 9 10
M  V30 10 2 10 11
M  V30 11 1 11 12
M  V30 12 3 12 13
M  V30 13 1 13 14
M  V30 14 2 14 15
M  V30 15 1 15 16
M  V30 16 2 16 17
M  V30 17 1 17 18
M  V30 18 3 18 19
M  V30 19 1 19 20
M  V30 20 2 20 21
M  V30 21 1 21 22
M  V30 22 2 22 23
M  V30 23 1 23 24
M  V30 24 1 24 25
M  V30 25 1 25 26
M  V30 26 2 26 27
M  V30 27 1 27 28
M  V30 28 2 28 29
M  V30 29 1 29 30
M  V30 30 1 26 31
M  V30 31 2 31 32
M  V30 32 1 32 33
M  V30 33 1 23 34
M  V30 34 2 34 35
M  V30 35 1 17 36
M  V30 36 1 11 37
M  V30 37 2 37 38
M  V30 38 2 3 39
M  V30 39 1 39 40
M  V30 40 2 40 41
M  V30 41 1 41 1
M  V30 42 1 7 2
M  V30 43 1 38 8
M  V30 44 1 36 14
M  V30 45 1 35 20
M  V30 46 2 33 24
M  V30 47 2 30 25
M  V30 48 1 1 42
M  V30 49 1 5 43
M  V30 50 1 6 44
M  V30 51 1 7 45
M  V30 52 1 9 46
M  V30 53 1 10 47
M  V30 54 1 15 48
M  V30 55 1 16 49
M  V30 56 1 21 50
M  V30 57 1 22 51
M  V30 58 1 27 52
M  V30 59 1 28 53
M  V30 60 1 30 54
M  V30 61 1 31 55
M  V30 62 1 32 56
M  V30 63 1 33 57
M  V30 64 1 34 58
M  V30 65 1 35 59
M  V30 66 1 37 60
M  V30 67 1 38 61
M  V30 68 1 39 62
M  V30 69 1 41 63
M  V30 END BOND
M  V30 END CTAB
M  END

$$$$
