
     RDKit          3D

  0  0  0  0  0  0  0  0  0  0999 V3000
M  V30 BEGIN CTAB
M  V30 COUNTS 63 69 0 0 0
M  V30 BEGIN ATOM
M  V30 1 C 11.8872 -2.6185 2.9627 0
M  V30 2 C 11.2489 -1.3910 2.7412 0
M  V30 3 C 9.9066 -1.3667 2.2834 0
M  V30 4 C 9.2698 -0.1185 2.0571 0
M  V30 5 C 9.9717 1.0690 2.3214 0
M  V30 6 C 11.2898 1.0322 2.7769 0
M  V30 7 C 11.9299 -0.1895 2.9802 0
M  V30 8 C 7.8886 -0.0137 1.5341 0
M  V30 9 C 7.5737 -0.5020 0.2554 0
M  V30 10 C 6.2727 -0.3848 -0.2431 0
M  V30 11 C 5.2783 0.2302 0.5277 0
M  V30 12 C 3.9387 0.3482 0.0156 0
M  V30 13 C 2.8159 0.4458 -0.4118 0
M  V30 14 C 1.4779 0.5607 -0.9190 0
M  V30 15 C 1.1360 0.8356 -2.2363 0
M  V30 16 C -0.2479 0.8833 -2.4416 0
M  V30 17 C -0.9748 0.6459 -1.2828 0
M  V30 18 C -2.4070 0.6236 -1.1872 0
M  V30 19 C -3.6094 0.6026 -1.1060 0
M  V30 20 C -5.0448 0.5748 -1.0085 0
M  V30 21 C -5.8108 1.5637 -1.6381 0
M  V30 22 C -7.2056 1.5355 -1.5446 0
M  V30 23 C -7.8467 0.5115 -0.8282 0
M  V30 24 C -9.3223 0.4899 -0.7103 0
M  V30 25 C -10.1752 0.3534 -1.8367 0
M  V30 26 C -11.5813 0.3888 -1.6541 0
M  V30 27 C -12.4309 0.2602 -2.7608 0
M  V30 28 C -11.8826 0.0839 -4.0302 0
M  V30 29 N -10.5356 0.0294 -4.1901 0
M  V30 30 C -9.6801 0.1543 -3.1416 0
M  V30 31 C -12.1175 0.5422 -0.3682 0
M  V30 32 C -11.2732 0.6528 0.7355 0
M  V30 33 C -9.8886 0.6252 0.5680 0
M  V30 34 C -7.0735 -0.4693 -0.1869 0
M  V30 35 C -5.6788 -0.4401 -0.2809 0
M  V30 36 S 0.0808 0.3751 -0.0027 0
M  V30 37 C 5.5908 0.7317 1.7974 0
M  V30 38 C 6.8915 0.6146 2.2969 0
M  V30 39 C 9.2464 -2.5984 2.0969 0
M  V30 40 N 9.8975 -3.7692 2.3261 0
M  V30 41 C 11.1888 -3.8047 2.7435 0
M  V30 42 H 12.9137 -2.6600 3.3073 0
M  V30 43 H 9.5001 2.0306 2.1573 0
M  V30 44 H 11.8197 1.9565 2.9681 0
M  V30 45 H 12.9550 -0.1955 3.3317 0
M  V30 46 H 8.3363 -0.9714 -0.3541 0
M  V30 47 H 6.0431 -0.7709 -1.2290 0
M  V30 48 H 1.8601 0.9946 -3.0247 0
M  V30 49 H -0.7000 1.0827 -3.4046 0
M  V30 50 H -5.3302 2.3567 -2.1984 0
M  V30 51 H -7.7867 2.3111 -2.0286 0
M  V30 52 H -13.5078 0.2900 -2.6445 0
M  V30 53 H -12.5302 -0.0186 -4.8906 0
M  V30 54 H -8.6195 0.0829 -3.3367 0
M  V30 55 H -13.1901 0.5687 -0.2161 0
M  V30 56 H -11.6938 0.7660 1.7264 0
M  V30 57 H -9.2527 0.7270 1.4393 0
M  V30 58 H -7.5516 -1.2597 0.3787 0
M  V30 59 H -5.0954 -1.2077 0.2135 0
M  V30 60 H 4.8299 1.2127 2.4002 0
M  V30 61 H 7.1203 1.0062 3.2805 0
M  V30 62 H 8.2130 -2.6417 1.7836 0
M  V30 63 H 11.6721 -4.7575 2.9138 0
M  V30 END ATOM
M  V30 BEGIN BOND
M  V30 1 2 1 2
M  V30 2 1 2 3
M  V30 3 1 3 4
M  V30 4 2 4 5
M  V30 5 1 5 6
M  V30 6 2 6 7
M  V30 7 1 4 8
M  V30 8 2 8 9
M  V30 9 1 9 10
M  V30 10 2 10 11
M  V30 11 1 11 12
M  V30 12 3 12 13
M  V30 13 1 13 14
M  V30 14 2 14 15
M  V30 15 1 15 16
M  V30 16 2 16 17
M  V30 17 1 17 18
M  V30 18 3 18 19
M  V30 19 1 19 20
M  V30 20 2 20 21
M  V30 21 1 21 22
M  V30 22 2 22 23
M  V30 23 1 23 24
M  V30 24 1 24 25
M  V30 25 1 25 26
M  V30 26 2 26 27
M  V30 27 1 27 28
M  V30 28 2 28 29
M  V30 29 1 29 30
M  V30 30 1 26 31
M  V30 31 2 31 32
M  V30 32 1 32 33
M  V30 33 1 23 34
M  V30 34 2 34 35
M  V30 35 1 17 36
M  V30 36 1 11 37
M  V30 37 2 37 38
M  V30 38 2 3 39
M  V30 39 1 39 40
M  V30 40 2 40 41
M  V30 41 1 41 1
M  V30 42 1 7 2
M  V30 43 1 38 8
M  V30 44 1 36 14
M  V30 45 1 35 20
M  V30 46 2 33 24
M  V30 47 2 30 25
M  V30 48 1 1 42
M  V30 49 1 5 43
M  V30 50 1 6 44
M  V30 51 1 7 45
M  V30 52 1 9 46
M  V30 53 1 10 47
M  V30 54 1 15 48
M  V30 55 1 16 49
M  V30 56 1 21 50
M  V30 57 1 22 51
M  V30 58 1 27 52
M  V30 59 1 28 53
M  V30 60 1 30 54
M  V30 61 1 31 55
M  V30 62 1 32 56
M  V30 63 1 33 57
M  V30 64 1 34 58
M  V30 65 1 35 59
M  V30 66 1 37 60
M  V30 67 1 38 61
M  V30 68 1 39 62
M  V30 69 1 41 63
M  V30 END BOND
M  V30 END CTAB
M  END

$$$$
