
     RDKit          3D

  0  0  0  0  0  0  0  0  0  0999 V3000
M  V30 BEGIN CTAB
M  V30 COUNTS 63 69 0 0 0
M  V30 BEGIN ATOM
M  V30 1 C 11.6905 -2.9490 -1.9247 0
M  V30 2 C 11.2205 -2.0343 -0.9728 0
M  V30 3 C 9.8549 -1.6514 -0.9768 0
M  V30 4 C 9.3860 -0.7301 -0.0041 0
M  V30 5 C 10.2916 -0.1903 0.9236 0
M  V30 6 C 11.6347 -0.5683 0.9128 0
M  V30 7 C 12.0981 -1.4904 -0.0243 0
M  V30 8 C 7.9661 -0.3200 0.0845 0
M  V30 9 C 7.6101 1.0282 -0.0797 0
M  V30 10 C 6.2719 1.4214 0.0221 0
M  V30 11 C 5.2796 0.4716 0.2970 0
M  V30 12 C 3.9018 0.8751 0.3937 0
M  V30 13 C 2.7471 1.2122 0.4715 0
M  V30 14 C 1.3716 1.6130 0.5597 0
M  V30 15 C 0.9214 2.9146 0.7399 0
M  V30 16 C -0.4749 3.0089 0.7717 0
M  V30 17 C -1.1034 1.7800 0.6166 0
M  V30 18 C -2.5231 1.5668 0.5965 0
M  V30 19 C -3.7147 1.3867 0.5759 0
M  V30 20 C -5.1371 1.1700 0.5467 0
M  V30 21 C -5.7567 0.4358 1.5658 0
M  V30 22 C -7.1380 0.2196 1.5339 0
M  V30 23 C -7.9094 0.7286 0.4771 0
M  V30 24 C -9.3732 0.5118 0.4525 0
M  V30 25 C -10.0178 -0.2106 -0.5849 0
M  V30 26 C -11.4298 -0.3414 -0.5689 0
M  V30 27 C -12.0749 -1.0495 -1.5914 0
M  V30 28 C -11.3178 -1.6308 -2.6072 0
M  V30 29 N -9.9651 -1.5168 -2.6007 0
M  V30 30 C -9.3046 -0.8345 -1.6287 0
M  V30 31 C -12.1748 0.2283 0.4726 0
M  V30 32 C -11.5318 0.9182 1.4994 0
M  V30 33 C -10.1438 1.0580 1.4917 0
M  V30 34 C -7.2854 1.4758 -0.5354 0
M  V30 35 C -5.9044 1.6910 -0.5027 0
M  V30 36 S 0.0553 0.5742 0.4376 0
M  V30 37 C 5.6310 -0.8723 0.4752 0
M  V30 38 C 6.9690 -1.2660 0.3752 0
M  V30 39 C 9.0183 -2.1888 -1.9760 0
M  V30 40 N 9.5121 -3.0698 -2.8860 0
M  V30 41 C 10.8117 -3.4605 -2.8778 0
M  V30 42 H 12.7279 -3.2612 -1.9340 0
M  V30 43 H 9.9517 0.5161 1.6712 0
M  V30 44 H 12.3190 -0.1480 1.6389 0
M  V30 45 H 13.1444 -1.7733 -0.0129 0
M  V30 46 H 8.3678 1.7724 -0.2936 0
M  V30 47 H 6.0112 2.4643 -0.1138 0
M  V30 48 H 1.5778 3.7696 0.8412 0
M  V30 49 H -1.0049 3.9444 0.8999 0
M  V30 50 H -5.1721 0.0307 2.3830 0
M  V30 51 H -7.6051 -0.3519 2.3267 0
M  V30 52 H -13.1531 -1.1570 -1.6020 0
M  V30 53 H -11.8065 -2.1817 -3.3993 0
M  V30 54 H -8.2254 -0.7977 -1.6744 0
M  V30 55 H -13.2542 0.1339 0.4955 0
M  V30 56 H -12.1129 1.3523 2.3028 0
M  V30 57 H -9.6674 1.6103 2.2928 0
M  V30 58 H -7.8686 1.8905 -1.3487 0
M  V30 59 H -5.4359 2.2641 -1.2939 0
M  V30 60 H 4.8717 -1.6145 0.6928 0
M  V30 61 H 7.2288 -2.3067 0.5248 0
M  V30 62 H 7.9780 -1.9063 -2.0509 0
M  V30 63 H 11.1655 -4.1651 -3.6189 0
M  V30 END ATOM
M  V30 BEGIN BOND
M  V30 1 2 1 2
M  V30 2 1 2 3
M  V30 3 1 3 4
M  V30 4 2 4 5
M  V30 5 1 5 6
M  V30 6 2 6 7
M  V30 7 1 4 8
M  V30 8 2 8 9
M  V30 9 1 9 10
M  V30 10 2 10 11
M  V30 11 1 11 12
M  V30 12 3 12 13
M  V30 13 1 13 14
M  V30 14 2 14 15
M  V30 15 1 15 16
M  V30 16 2 16 17
M  V30 17 1 17 18
M  V30 18 3 18 19
M  V30 19 1 19 20
M  V30 20 2 20 21
M  V30 21 1 21 22
M  V30 22 2 22 23
M  V30 23 1 23 24
M  V30 24 1 24 25
M  V30 25 1 25 26
M  V30 26 2 26 27
M  V30 27 1 27 28
M  V30 28 2 28 29
M  V30 29 1 29 30
M  V30 30 1 26 31
M  V30 31 2 31 32
M  V30 32 1 32 33
M  V30 33 1 23 34
M  V30 34 2 34 35
M  V30 35 1 17 36
M  V30 36 1 11 37
M  V30 37 2 37 38
M  V30 38 2 3 39
M  V30 39 1 39 40
M  V30 40 2 40 41
M  V30 41 1 41 1
M  V30 42 1 7 2
M  V30 43 1 38 8
M  V30 44 1 36 14
M  V30 45 1 35 20
M  V30 46 2 33 24
M  V30 47 2 30 25
M  V30 48 1 1 42
M  V30 49 1 5 43
M  V30 50 1 6 44
M  V30 51 1 7 45
M  V30 52 1 9 46
M  V30 53 1 10 47
M  V30 54 1 15 48
M  V30 55 1 16 49
M  V30 56 1 21 50
M  V30 57 1 22 51
M  V30 58 1 27 52
M  V30 59 1 28 53
M  V30 60 1 30 54
M  V30 61 1 31 55
M  V30 62 1 32 56
M  V30 63 1 33 57
M  V30 64 1 34 58
M  V30 65 1 35 59
M  V30 66 1 37 60
M  V30 67 1 38 61
M  V30 68 1 39 62
M  V30 69 1 41 63
M  V30 END BOND
M  V30 END CTAB
M  END

$$$$
