
     RDKit          3D

  0  0  0  0  0  0  0  0  0  0999 V3000
M  V30 BEGIN CTAB
M  V30 COUNTS 63 69 0 0 0
M  V30 BEGIN ATOM
M  V30 1 C 12.0457 -2.9787 -0.0324 0
M  V30 2 C 11.4420 -1.7612 0.3085 0
M  V30 3 C 10.0660 -1.5544 0.0332 0
M  V30 4 C 9.4609 -0.3212 0.3921 0
M  V30 5 C 10.2462 0.6823 0.9844 0
M  V30 6 C 11.6002 0.4698 1.2424 0
M  V30 7 C 12.1963 -0.7465 0.9137 0
M  V30 8 C 8.0190 -0.0508 0.1882 0
M  V30 9 C 7.6099 1.0229 -0.6187 0
M  V30 10 C 6.2501 1.3043 -0.7814 0
M  V30 11 C 5.2876 0.5212 -0.1324 0
M  V30 12 C 3.8889 0.8206 -0.2892 0
M  V30 13 C 2.7174 1.0740 -0.4170 0
M  V30 14 C 1.3219 1.3770 -0.5656 0
M  V30 15 C 0.8043 2.5751 -1.0399 0
M  V30 16 C -0.5952 2.5883 -1.0736 0
M  V30 17 C -1.1586 1.4012 -0.6240 0
M  V30 18 C -2.5652 1.1240 -0.5513 0
M  V30 19 C -3.7473 0.8957 -0.4936 0
M  V30 20 C -5.1604 0.6304 -0.4285 0
M  V30 21 C -5.6350 -0.6835 -0.5300 0
M  V30 22 C -7.0086 -0.9392 -0.4762 0
M  V30 23 C -7.9194 0.1165 -0.3127 0
M  V30 24 C -9.3768 -0.1493 -0.3033 0
M  V30 25 C -10.2104 0.2009 0.7916 0
M  V30 26 C -11.6104 -0.0082 0.6968 0
M  V30 27 C -12.4430 0.3494 1.7660 0
M  V30 28 C -11.8801 0.8837 2.9241 0
M  V30 29 N -10.5353 1.0512 3.0158 0
M  V30 30 C -9.6985 0.7286 1.9947 0
M  V30 31 C -12.1573 -0.5770 -0.4614 0
M  V30 32 C -11.3292 -0.9466 -1.5201 0
M  V30 33 C -9.9522 -0.7354 -1.4436 0
M  V30 34 C -7.4384 1.4335 -0.2227 0
M  V30 35 C -6.0654 1.6880 -0.2751 0
M  V30 36 S 0.0614 0.3313 -0.1848 0
M  V30 37 C 5.6904 -0.5458 0.6799 0
M  V30 38 C 7.0499 -0.8282 0.8434 0
M  V30 39 C 9.3573 -2.5856 -0.6171 0
M  V30 40 N 9.9780 -3.7519 -0.9359 0
M  V30 41 C 11.2876 -3.9704 -0.6535 0
M  V30 42 H 13.0939 -3.1596 0.1758 0
M  V30 43 H 9.8024 1.6308 1.2637 0
M  V30 44 H 12.1888 1.2503 1.7066 0
M  V30 45 H 13.2483 -0.8922 1.1273 0
M  V30 46 H 8.3439 1.6396 -1.1228 0
M  V30 47 H 5.9492 2.1342 -1.4089 0
M  V30 48 H 1.4152 3.4130 -1.3520 0
M  V30 49 H -1.1737 3.4367 -1.4157 0
M  V30 50 H -4.9436 -1.5083 -0.6546 0
M  V30 51 H -7.3628 -1.9592 -0.5605 0
M  V30 52 H -13.5161 0.2079 1.7107 0
M  V30 53 H -12.5147 1.1598 3.7564 0
M  V30 54 H -8.6372 0.8729 2.1392 0
M  V30 55 H -13.2249 -0.7431 -0.5443 0
M  V30 56 H -11.7578 -1.3914 -2.4089 0
M  V30 57 H -9.3326 -1.0117 -2.2883 0
M  V30 58 H -8.1279 2.2626 -0.1208 0
M  V30 59 H -5.7098 2.7091 -0.2033 0
M  V30 60 H 4.9552 -1.1544 1.1921 0
M  V30 61 H 7.3481 -1.6480 1.4857 0
M  V30 62 H 8.3175 -2.4712 -0.8870 0
M  V30 63 H 11.7442 -4.9137 -0.9211 0
M  V30 END ATOM
M  V30 BEGIN BOND
M  V30 1 2 1 2
M  V30 2 1 2 3
M  V30 3 1 3 4
M  V30 4 2 4 5
M  V30 5 1 5 6
M  V30 6 2 6 7
M  V30 7 1 4 8
M  V30 8 2 8 9
M  V30 9 1 9 10
M  V30 10 2 10 11
M  V30 11 1 11 12
M  V30 12 3 12 13
M  V30 13 1 13 14
M  V30 14 2 14 15
M  V30 15 1 15 16
M  V30 16 2 16 17
M  V30 17 1 17 18
M  V30 18 3 18 19
M  V30 19 1 19 20
M  V30 20 2 20 21
M  V30 21 1 21 22
M  V30 22 2 22 23
M  V30 23 1 23 24
M  V30 24 1 24 25
M  V30 25 1 25 26
M  V30 26 2 26 27
M  V30 27 1 27 28
M  V30 28 2 28 29
M  V30 29 1 29 30
M  V30 30 1 26 31
M  V30 31 2 31 32
M  V30 32 1 32 33
M  V30 33 1 23 34
M  V30 34 2 34 35
M  V30 35 1 17 36
M  V30 36 1 11 37
M  V30 37 2 37 38
M  V30 38 2 3 39
M  V30 39 1 39 40
M  V30 40 2 40 41
M  V30 41 1 41 1
M  V30 42 1 7 2
M  V30 43 1 38 8
M  V30 44 1 36 14
M  V30 45 1 35 20
M  V30 46 2 33 24
M  V30 47 2 30 25
M  V30 48 1 1 42
M  V30 49 1 5 43
M  V30 50 1 6 44
M  V30 51 1 7 45
M  V30 52 1 9 46
M  V30 53 1 10 47
M  V30 54 1 15 48
M  V30 55 1 16 49
M  V30 56 1 21 50
M  V30 57 1 22 51
M  V30 58 1 27 52
M  V30 59 1 28 53
M  V30 60 1 30 54
M  V30 61 1 31 55
M  V30 62 1 32 56
M  V30 63 1 33 57
M  V30 64 1 34 58
M  V30 65 1 35 59
M  V30 66 1 37 60
M  V30 67 1 38 61
M  V30 68 1 39 62
M  V30 69 1 41 63
M  V30 END BOND
M  V30 END CTAB
M  END

$$$$
