
     RDKit          3D

  0  0  0  0  0  0  0  0  0  0999 V3000
M  V30 BEGIN CTAB
M  V30 COUNTS 63 69 0 0 0
M  V30 BEGIN ATOM
M  V30 1 C -12.2006 -2.0184 -0.6220 0
M  V30 2 C -11.5397 -0.7909 -0.7625 0
M  V30 3 C -10.1236 -0.7407 -0.6959 0
M  V30 4 C -9.4624 0.5064 -0.8458 0
M  V30 5 C -10.2261 1.6718 -1.0247 0
M  V30 6 C -11.6187 1.6105 -1.0822 0
M  V30 7 C -12.2744 0.3865 -0.9589 0
M  V30 8 C -7.9868 0.6304 -0.8392 0
M  V30 9 C -7.3491 1.4169 0.1333 0
M  V30 10 C -5.9572 1.5506 0.1303 0
M  V30 11 C -5.1921 0.9069 -0.8503 0
M  V30 12 C -3.7596 1.0433 -0.8525 0
M  V30 13 C -2.5595 1.1565 -0.8548 0
M  V30 14 C -1.1302 1.2898 -0.8581 0
M  V30 15 C -0.4092 2.2181 -1.5971 0
M  V30 16 C 0.9733 2.1126 -1.4047 0
M  V30 17 C 1.3202 1.1027 -0.5172 0
M  V30 18 C 2.6584 0.7588 -0.1281 0
M  V30 19 C 3.7819 0.4691 0.1986 0
M  V30 20 C 5.1230 0.1225 0.5888 0
M  V30 21 C 5.5502 0.3423 1.9043 0
M  V30 22 C 6.8528 0.0046 2.2843 0
M  V30 23 C 7.7425 -0.5473 1.3489 0
M  V30 24 C 9.1137 -0.9259 1.7597 0
M  V30 25 C 10.2715 -0.3449 1.1794 0
M  V30 26 C 11.5544 -0.7918 1.5875 0
M  V30 27 C 12.7028 -0.2277 1.0164 0
M  V30 28 C 12.5708 0.7792 0.0614 0
M  V30 29 N 11.3383 1.2144 -0.3055 0
M  V30 30 C 10.2019 0.6889 0.2232 0
M  V30 31 C 11.6710 -1.7881 2.5666 0
M  V30 32 C 10.5293 -2.3375 3.1480 0
M  V30 33 C 9.2620 -1.9104 2.7508 0
M  V30 34 C 7.3051 -0.7781 0.0343 0
M  V30 35 C 6.0024 -0.4399 -0.3448 0
M  V30 36 S -0.0710 0.3363 0.0336 0
M  V30 37 C -5.8245 0.1329 -1.8311 0
M  V30 38 C -7.2161 -0.0007 -1.8293 0
M  V30 39 C -9.4276 -1.9427 -0.4536 0
M  V30 40 N -10.1039 -3.1138 -0.3186 0
M  V30 41 C -11.4573 -3.1771 -0.4032 0
M  V30 42 H -13.2811 -2.0802 -0.6754 0
M  V30 43 H -9.7385 2.6328 -1.1380 0
M  V30 44 H -12.1924 2.5167 -1.2290 0
M  V30 45 H -13.3567 0.3610 -1.0094 0
M  V30 46 H -7.9298 1.9198 0.8970 0
M  V30 47 H -5.4780 2.1552 0.8910 0
M  V30 48 H -0.8646 2.9475 -2.2544 0
M  V30 49 H 1.6932 2.7526 -1.8983 0
M  V30 50 H 4.8766 0.7728 2.6356 0
M  V30 51 H 7.1705 0.1790 3.3050 0
M  V30 52 H 13.6923 -0.5582 1.3096 0
M  V30 53 H 13.4515 1.2226 -0.3837 0
M  V30 54 H 9.2535 1.0945 -0.0995 0
M  V30 55 H 12.6457 -2.1364 2.8876 0
M  V30 56 H 10.6263 -3.1030 3.9071 0
M  V30 57 H 8.3895 -2.3627 3.2068 0
M  V30 58 H 7.9727 -1.2214 -0.6945 0
M  V30 59 H 5.6804 -0.6198 -1.3635 0
M  V30 60 H -5.2426 -0.3644 -2.5978 0
M  V30 61 H -7.6941 -0.5943 -2.5990 0
M  V30 62 H -8.3514 -1.9606 -0.3565 0
M  V30 63 H -11.9585 -4.1294 -0.2914 0
M  V30 END ATOM
M  V30 BEGIN BOND
M  V30 1 2 1 2
M  V30 2 1 2 3
M  V30 3 1 3 4
M  V30 4 2 4 5
M  V30 5 1 5 6
M  V30 6 2 6 7
M  V30 7 1 4 8
M  V30 8 2 8 9
M  V30 9 1 9 10
M  V30 10 2 10 11
M  V30 11 1 11 12
M  V30 12 3 12 13
M  V30 13 1 13 14
M  V30 14 2 14 15
M  V30 15 1 15 16
M  V30 16 2 16 17
M  V30 17 1 17 18
M  V30 18 3 18 19
M  V30 19 1 19 20
M  V30 20 2 20 21
M  V30 21 1 21 22
M  V30 22 2 22 23
M  V30 23 1 23 24
M  V30 24 1 24 25
M  V30 25 1 25 26
M  V30 26 2 26 27
M  V30 27 1 27 28
M  V30 28 2 28 29
M  V30 29 1 29 30
M  V30 30 1 26 31
M  V30 31 2 31 32
M  V30 32 1 32 33
M  V30 33 1 23 34
M  V30 34 2 34 35
M  V30 35 1 17 36
M  V30 36 1 11 37
M  V30 37 2 37 38
M  V30 38 2 3 39
M  V30 39 1 39 40
M  V30 40 2 40 41
M  V30 41 1 41 1
M  V30 42 1 7 2
M  V30 43 1 38 8
M  V30 44 1 36 14
M  V30 45 1 35 20
M  V30 46 2 33 24
M  V30 47 2 30 25
M  V30 48 1 1 42
M  V30 49 1 5 43
M  V30 50 1 6 44
M  V30 51 1 7 45
M  V30 52 1 9 46
M  V30 53 1 10 47
M  V30 54 1 15 48
M  V30 55 1 16 49
M  V30 56 1 21 50
M  V30 57 1 22 51
M  V30 58 1 27 52
M  V30 59 1 28 53
M  V30 60 1 30 54
M  V30 61 1 31 55
M  V30 62 1 32 56
M  V30 63 1 33 57
M  V30 64 1 34 58
M  V30 65 1 35 59
M  V30 66 1 37 60
M  V30 67 1 38 61
M  V30 68 1 39 62
M  V30 69 1 41 63
M  V30 END BOND
M  V30 END CTAB
M  END

$$$$
