
     RDKit          3D

  0  0  0  0  0  0  0  0  0  0999 V3000
M  V30 BEGIN CTAB
M  V30 COUNTS 63 69 0 0 0
M  V30 BEGIN ATOM
M  V30 1 C 12.1854 -1.6201 -0.8961 0
M  V30 2 C 11.4756 -0.4148 -0.9776 0
M  V30 3 C 10.0974 -0.3841 -0.6436 0
M  V30 4 C 9.3850 0.8403 -0.7351 0
M  V30 5 C 10.0675 2.0049 -1.1237 0
M  V30 6 C 11.4246 1.9632 -1.4434 0
M  V30 7 C 12.1260 0.7602 -1.3785 0
M  V30 8 C 7.9351 0.9403 -0.4520 0
M  V30 9 C 7.0072 0.2376 -1.2383 0
M  V30 10 C 5.6374 0.3506 -0.9821 0
M  V30 11 C 5.1827 1.1746 0.0550 0
M  V30 12 C 3.7728 1.2908 0.3183 0
M  V30 13 C 2.5918 1.3880 0.5388 0
M  V30 14 C 1.1854 1.5036 0.8013 0
M  V30 15 C 0.6081 2.3454 1.7426 0
M  V30 16 C -0.7877 2.2465 1.7793 0
M  V30 17 C -1.2887 1.3284 0.8660 0
M  V30 18 C -2.6767 1.0149 0.6764 0
M  V30 19 C -3.8424 0.7522 0.5173 0
M  V30 20 C -5.2341 0.4393 0.3274 0
M  V30 21 C -5.7227 0.1623 -0.9555 0
M  V30 22 C -7.0754 -0.1396 -1.1408 0
M  V30 23 C -7.9490 -0.1768 -0.0425 0
M  V30 24 C -9.3855 -0.4738 -0.2438 0
M  V30 25 C -10.0232 -1.5939 0.3507 0
M  V30 26 C -11.4146 -1.7881 0.1559 0
M  V30 27 C -12.0534 -2.8879 0.7435 0
M  V30 28 C -11.3090 -3.7889 1.5030 0
M  V30 29 N -9.9737 -3.6053 1.6644 0
M  V30 30 C -9.3202 -2.5487 1.1134 0
M  V30 31 C -12.1448 -0.8864 -0.6306 0
M  V30 32 C -11.5066 0.1985 -1.2298 0
M  V30 33 C -10.1397 0.4032 -1.0408 0
M  V30 34 C -7.4567 0.1145 1.2403 0
M  V30 35 C -6.1042 0.4167 1.4245 0
M  V30 36 S -0.0178 0.6351 0.0109 0
M  V30 37 C 6.1031 1.8886 0.8326 0
M  V30 38 C 7.4733 1.7756 0.5776 0
M  V30 39 C 9.4943 -1.5800 -0.2035 0
M  V30 40 N 10.2165 -2.7292 -0.1336 0
M  V30 41 C 11.5303 -2.7752 -0.4725 0
M  V30 42 H 13.2373 -1.6671 -1.1521 0
M  V30 43 H 9.5404 2.9489 -1.1959 0
M  V30 44 H 11.9341 2.8680 -1.7489 0
M  V30 45 H 13.1791 0.7495 -1.6340 0
M  V30 46 H 7.3456 -0.3952 -2.0497 0
M  V30 47 H 4.9336 -0.2014 -1.5937 0
M  V30 48 H 1.1745 3.0093 2.3830 0
M  V30 49 H -1.4078 2.8260 2.4510 0
M  V30 50 H -5.0589 0.1810 -1.8115 0
M  V30 51 H -7.4411 -0.3507 -2.1384 0
M  V30 52 H -13.1163 -3.0520 0.6120 0
M  V30 53 H -11.7927 -4.6424 1.9591 0
M  V30 54 H -8.2529 -2.4725 1.2658 0
M  V30 55 H -13.2079 -1.0252 -0.7879 0
M  V30 56 H -12.0753 0.8886 -1.8397 0
M  V30 57 H -9.6689 1.2618 -1.5047 0
M  V30 58 H -8.1215 0.1096 2.0956 0
M  V30 59 H -5.7380 0.6358 2.4203 0
M  V30 60 H 5.7617 2.5325 1.6343 0
M  V30 61 H 8.1748 2.3332 1.1862 0
M  V30 62 H 8.4571 -1.6097 0.0992 0
M  V30 63 H 12.0701 -3.7103 -0.4043 0
M  V30 END ATOM
M  V30 BEGIN BOND
M  V30 1 2 1 2
M  V30 2 1 2 3
M  V30 3 1 3 4
M  V30 4 2 4 5
M  V30 5 1 5 6
M  V30 6 2 6 7
M  V30 7 1 4 8
M  V30 8 2 8 9
M  V30 9 1 9 10
M  V30 10 2 10 11
M  V30 11 1 11 12
M  V30 12 3 12 13
M  V30 13 1 13 14
M  V30 14 2 14 15
M  V30 15 1 15 16
M  V30 16 2 16 17
M  V30 17 1 17 18
M  V30 18 3 18 19
M  V30 19 1 19 20
M  V30 20 2 20 21
M  V30 21 1 21 22
M  V30 22 2 22 23
M  V30 23 1 23 24
M  V30 24 1 24 25
M  V30 25 1 25 26
M  V30 26 2 26 27
M  V30 27 1 27 28
M  V30 28 2 28 29
M  V30 29 1 29 30
M  V30 30 1 26 31
M  V30 31 2 31 32
M  V30 32 1 32 33
M  V30 33 1 23 34
M  V30 34 2 34 35
M  V30 35 1 17 36
M  V30 36 1 11 37
M  V30 37 2 37 38
M  V30 38 2 3 39
M  V30 39 1 39 40
M  V30 40 2 40 41
M  V30 41 1 41 1
M  V30 42 1 7 2
M  V30 43 1 38 8
M  V30 44 1 36 14
M  V30 45 1 35 20
M  V30 46 2 33 24
M  V30 47 2 30 25
M  V30 48 1 1 42
M  V30 49 1 5 43
M  V30 50 1 6 44
M  V30 51 1 7 45
M  V30 52 1 9 46
M  V30 53 1 10 47
M  V30 54 1 15 48
M  V30 55 1 16 49
M  V30 56 1 21 50
M  V30 57 1 22 51
M  V30 58 1 27 52
M  V30 59 1 28 53
M  V30 60 1 30 54
M  V30 61 1 31 55
M  V30 62 1 32 56
M  V30 63 1 33 57
M  V30 64 1 34 58
M  V30 65 1 35 59
M  V30 66 1 37 60
M  V30 67 1 38 61
M  V30 68 1 39 62
M  V30 69 1 41 63
M  V30 END BOND
M  V30 END CTAB
M  END

$$$$
