
     RDKit          3D

  0  0  0  0  0  0  0  0  0  0999 V3000
M  V30 BEGIN CTAB
M  V30 COUNTS 63 69 0 0 0
M  V30 BEGIN ATOM
M  V30 1 C 12.0335 3.0467 -1.7472 0
M  V30 2 C 11.0329 3.2356 -0.7847 0
M  V30 3 C 9.9014 2.3786 -0.7655 0
M  V30 4 C 8.8791 2.5955 0.1950 0
M  V30 5 C 9.0427 3.6085 1.1552 0
M  V30 6 C 10.1751 4.4233 1.1457 0
M  V30 7 C 11.1539 4.2572 0.1666 0
M  V30 8 C 7.6157 1.8277 0.1956 0
M  V30 9 C 6.7273 1.9356 -0.8871 0
M  V30 10 C 5.5062 1.2556 -0.8677 0
M  V30 11 C 5.1581 0.4674 0.2361 0
M  V30 12 C 3.8872 -0.2092 0.2617 0
M  V30 13 C 2.8167 -0.7630 0.2810 0
M  V30 14 C 1.5351 -1.4097 0.3033 0
M  V30 15 C 1.3214 -2.7815 0.2796 0
M  V30 16 C -0.0370 -3.1215 0.3116 0
M  V30 17 C -0.8715 -2.0114 0.3595 0
M  V30 18 C -2.3051 -2.0455 0.4185 0
M  V30 19 C -3.5086 -2.0633 0.4742 0
M  V30 20 C -4.9461 -2.0690 0.5456 0
M  V30 21 C -5.5879 -2.0404 1.7915 0
M  V30 22 C -6.9836 -2.0164 1.8612 0
M  V30 23 C -7.7503 -2.0107 0.6861 0
M  V30 24 C -9.2312 -1.9723 0.7635 0
M  V30 25 C -9.9923 -0.8882 0.2479 0
M  V30 26 C -11.4095 -0.9334 0.3171 0
M  V30 27 C -12.1668 0.1334 -0.1922 0
M  V30 28 C -11.5146 1.2356 -0.7489 0
M  V30 29 N -10.1561 1.2762 -0.7920 0
M  V30 30 C -9.3903 0.2582 -0.3128 0
M  V30 31 C -12.0465 -2.0376 0.9028 0
M  V30 32 C -11.2909 -3.0897 1.4263 0
M  V30 33 C -9.8958 -3.0573 1.3603 0
M  V30 34 C -7.1031 -2.0558 -0.5602 0
M  V30 35 C -5.7062 -2.0837 -0.6296 0
M  V30 36 S 0.0565 -0.6097 0.3639 0
M  V30 37 C 6.0392 0.3565 1.3198 0
M  V30 38 C 7.2606 1.0397 1.3030 0
M  V30 39 C 9.8449 1.3259 -1.7020 0
M  V30 40 N 10.8423 1.1644 -2.6117 0
M  V30 41 C 11.9161 1.9975 -2.6592 0
M  V30 42 H 12.9036 3.6942 -1.7853 0
M  V30 43 H 8.2762 3.7798 1.9023 0
M  V30 44 H 10.2802 5.2075 1.8849 0
M  V30 45 H 12.0193 4.9120 0.1663 0
M  V30 46 H 6.9752 2.5580 -1.7387 0
M  V30 47 H 4.8309 1.3524 -1.7087 0
M  V30 48 H 2.1174 -3.5145 0.2424 0
M  V30 49 H -0.3944 -4.1431 0.3037 0
M  V30 50 H -5.0082 -2.0327 2.7064 0
M  V30 51 H -7.4696 -1.9861 2.8288 0
M  V30 52 H -13.2521 0.1168 -0.1582 0
M  V30 53 H -12.0901 2.0634 -1.1452 0
M  V30 54 H -8.3148 0.3596 -0.3661 0
M  V30 55 H -13.1278 -2.0809 0.9634 0
M  V30 56 H -11.7875 -3.9397 1.8796 0
M  V30 57 H -9.3307 -3.8904 1.7644 0
M  V30 58 H -7.6826 -2.0614 -1.4752 0
M  V30 59 H -5.2190 -2.1110 -1.5971 0
M  V30 60 H 5.7789 -0.2483 2.1804 0
M  V30 61 H 7.9276 0.9591 2.1519 0
M  V30 62 H 9.0228 0.6225 -1.7101 0
M  V30 63 H 12.6922 1.8333 -3.3938 0
M  V30 END ATOM
M  V30 BEGIN BOND
M  V30 1 2 1 2
M  V30 2 1 2 3
M  V30 3 1 3 4
M  V30 4 2 4 5
M  V30 5 1 5 6
M  V30 6 2 6 7
M  V30 7 1 4 8
M  V30 8 2 8 9
M  V30 9 1 9 10
M  V30 10 2 10 11
M  V30 11 1 11 12
M  V30 12 3 12 13
M  V30 13 1 13 14
M  V30 14 2 14 15
M  V30 15 1 15 16
M  V30 16 2 16 17
M  V30 17 1 17 18
M  V30 18 3 18 19
M  V30 19 1 19 20
M  V30 20 2 20 21
M  V30 21 1 21 22
M  V30 22 2 22 23
M  V30 23 1 23 24
M  V30 24 1 24 25
M  V30 25 1 25 26
M  V30 26 2 26 27
M  V30 27 1 27 28
M  V30 28 2 28 29
M  V30 29 1 29 30
M  V30 30 1 26 31
M  V30 31 2 31 32
M  V30 32 1 32 33
M  V30 33 1 23 34
M  V30 34 2 34 35
M  V30 35 1 17 36
M  V30 36 1 11 37
M  V30 37 2 37 38
M  V30 38 2 3 39
M  V30 39 1 39 40
M  V30 40 2 40 41
M  V30 41 1 41 1
M  V30 42 1 7 2
M  V30 43 1 38 8
M  V30 44 1 36 14
M  V30 45 1 35 20
M  V30 46 2 33 24
M  V30 47 2 30 25
M  V30 48 1 1 42
M  V30 49 1 5 43
M  V30 50 1 6 44
M  V30 51 1 7 45
M  V30 52 1 9 46
M  V30 53 1 10 47
M  V30 54 1 15 48
M  V30 55 1 16 49
M  V30 56 1 21 50
M  V30 57 1 22 51
M  V30 58 1 27 52
M  V30 59 1 28 53
M  V30 60 1 30 54
M  V30 61 1 31 55
M  V30 62 1 32 56
M  V30 63 1 33 57
M  V30 64 1 34 58
M  V30 65 1 35 59
M  V30 66 1 37 60
M  V30 67 1 38 61
M  V30 68 1 39 62
M  V30 69 1 41 63
M  V30 END BOND
M  V30 END CTAB
M  END

$$$$
