
     RDKit          3D

  0  0  0  0  0  0  0  0  0  0999 V3000
M  V30 BEGIN CTAB
M  V30 COUNTS 63 69 0 0 0
M  V30 BEGIN ATOM
M  V30 1 C 12.4937 -1.8884 -2.0908 0
M  V30 2 C 11.3175 -2.6236 -1.8929 0
M  V30 3 C 10.0908 -1.9459 -1.6741 0
M  V30 4 C 8.9033 -2.6990 -1.4803 0
M  V30 5 C 8.9722 -4.1019 -1.4763 0
M  V30 6 C 10.1857 -4.7571 -1.6866 0
M  V30 7 C 11.3525 -4.0248 -1.9011 0
M  V30 8 C 7.5787 -2.0627 -1.2990 0
M  V30 9 C 7.0196 -1.2814 -2.3235 0
M  V30 10 C 5.7585 -0.7009 -2.1590 0
M  V30 11 C 5.0412 -0.9042 -0.9736 0
M  V30 12 C 3.7420 -0.3085 -0.8061 0
M  V30 13 C 2.6535 0.1901 -0.6666 0
M  V30 14 C 1.3569 0.7837 -0.5014 0
M  V30 15 C 1.0817 2.1438 -0.5489 0
M  V30 16 C -0.2744 2.4324 -0.3561 0
M  V30 17 C -1.0466 1.2953 -0.1596 0
M  V30 18 C -2.4649 1.2797 0.0619 0
M  V30 19 C -3.6559 1.2664 0.2470 0
M  V30 20 C -5.0780 1.2504 0.4665 0
M  V30 21 C -5.7505 0.0318 0.6222 0
M  V30 22 C -7.1331 0.0155 0.8305 0
M  V30 23 C -7.8535 1.2189 0.8942 0
M  V30 24 C -9.3216 1.1982 1.0857 0
M  V30 25 C -9.9542 1.8073 2.2009 0
M  V30 26 C -11.3696 1.7946 2.2915 0
M  V30 27 C -12.0031 2.3987 3.3855 0
M  V30 28 C -11.2319 2.9940 4.3824 0
M  V30 29 N -9.8772 2.9807 4.2963 0
M  V30 30 C -9.2275 2.4083 3.2487 0
M  V30 31 C -12.1303 1.1708 1.2931 0
M  V30 32 C -11.5002 0.5545 0.2131 0
M  V30 33 C -10.1092 0.5657 0.1098 0
M  V30 34 C -7.1761 2.4377 0.7253 0
M  V30 35 C -5.7937 2.4530 0.5173 0
M  V30 36 S -0.0653 -0.0685 -0.2223 0
M  V30 37 C 5.5886 -1.6932 0.0458 0
M  V30 38 C 6.8500 -2.2741 -0.1177 0
M  V30 39 C 10.1093 -0.5368 -1.6311 0
M  V30 40 N 11.2710 0.1419 -1.8233 0
M  V30 41 C 12.4468 -0.4956 -2.0555 0
M  V30 42 H 13.4404 -2.3859 -2.2655 0
M  V30 43 H 8.0763 -4.6927 -1.3263 0
M  V30 44 H 10.2205 -5.8390 -1.6892 0
M  V30 45 H 12.2840 -4.5538 -2.0660 0
M  V30 46 H 7.5600 -1.1252 -3.2492 0
M  V30 47 H 5.3416 -0.0974 -2.9564 0
M  V30 48 H 1.8336 2.9039 -0.7178 0
M  V30 49 H -0.6752 3.4379 -0.3608 0
M  V30 50 H -5.2068 -0.9045 0.5803 0
M  V30 51 H -7.6418 -0.9337 0.9475 0
M  V30 52 H -13.0832 2.4056 3.4714 0
M  V30 53 H -11.7115 3.4608 5.2323 0
M  V30 54 H -8.1467 2.4164 3.2519 0
M  V30 55 H -13.2121 1.1534 1.3522 0
M  V30 56 H -12.0931 0.0702 -0.5519 0
M  V30 57 H -9.6432 0.0932 -0.7467 0
M  V30 58 H -7.7201 3.3741 0.7511 0
M  V30 59 H -5.2842 3.4009 0.3916 0
M  V30 60 H 5.0402 -1.8605 0.9651 0
M  V30 61 H 7.2619 -2.8832 0.6777 0
M  V30 62 H 9.2122 0.0324 -1.4323 0
M  V30 63 H 13.3500 0.0808 -2.2047 0
M  V30 END ATOM
M  V30 BEGIN BOND
M  V30 1 2 1 2
M  V30 2 1 2 3
M  V30 3 1 3 4
M  V30 4 2 4 5
M  V30 5 1 5 6
M  V30 6 2 6 7
M  V30 7 1 4 8
M  V30 8 2 8 9
M  V30 9 1 9 10
M  V30 10 2 10 11
M  V30 11 1 11 12
M  V30 12 3 12 13
M  V30 13 1 13 14
M  V30 14 2 14 15
M  V30 15 1 15 16
M  V30 16 2 16 17
M  V30 17 1 17 18
M  V30 18 3 18 19
M  V30 19 1 19 20
M  V30 20 2 20 21
M  V30 21 1 21 22
M  V30 22 2 22 23
M  V30 23 1 23 24
M  V30 24 1 24 25
M  V30 25 1 25 26
M  V30 26 2 26 27
M  V30 27 1 27 28
M  V30 28 2 28 29
M  V30 29 1 29 30
M  V30 30 1 26 31
M  V30 31 2 31 32
M  V30 32 1 32 33
M  V30 33 1 23 34
M  V30 34 2 34 35
M  V30 35 1 17 36
M  V30 36 1 11 37
M  V30 37 2 37 38
M  V30 38 2 3 39
M  V30 39 1 39 40
M  V30 40 2 40 41
M  V30 41 1 41 1
M  V30 42 1 7 2
M  V30 43 1 38 8
M  V30 44 1 36 14
M  V30 45 1 35 20
M  V30 46 2 33 24
M  V30 47 2 30 25
M  V30 48 1 1 42
M  V30 49 1 5 43
M  V30 50 1 6 44
M  V30 51 1 7 45
M  V30 52 1 9 46
M  V30 53 1 10 47
M  V30 54 1 15 48
M  V30 55 1 16 49
M  V30 56 1 21 50
M  V30 57 1 22 51
M  V30 58 1 27 52
M  V30 59 1 28 53
M  V30 60 1 30 54
M  V30 61 1 31 55
M  V30 62 1 32 56
M  V30 63 1 33 57
M  V30 64 1 34 58
M  V30 65 1 35 59
M  V30 66 1 37 60
M  V30 67 1 38 61
M  V30 68 1 39 62
M  V30 69 1 41 63
M  V30 END BOND
M  V30 END CTAB
M  END

$$$$
