
     RDKit          3D

  0  0  0  0  0  0  0  0  0  0999 V3000
M  V30 BEGIN CTAB
M  V30 COUNTS 63 69 0 0 0
M  V30 BEGIN ATOM
M  V30 1 C 12.4899 -0.6526 0.4543 0
M  V30 2 C 11.5707 0.3470 0.7964 0
M  V30 3 C 10.2042 0.2023 0.4407 0
M  V30 4 C 9.2829 1.2289 0.7803 0
M  V30 5 C 9.7397 2.3481 1.4973 0
M  V30 6 C 11.0833 2.4714 1.8529 0
M  V30 7 C 11.9980 1.4827 1.4974 0
M  V30 8 C 7.8510 1.1794 0.3982 0
M  V30 9 C 6.8556 1.2567 1.3853 0
M  V30 10 C 5.5034 1.2275 1.0296 0
M  V30 11 C 5.1335 1.1236 -0.3163 0
M  V30 12 C 3.7427 1.0663 -0.6805 0
M  V30 13 C 2.5779 1.0044 -0.9853 0
M  V30 14 C 1.1911 0.9105 -1.3469 0
M  V30 15 C 0.7064 0.7338 -2.6363 0
M  V30 16 C -0.6872 0.6054 -2.6824 0
M  V30 17 C -1.2785 0.6778 -1.4277 0
M  V30 18 C -2.6793 0.5186 -1.1562 0
M  V30 19 C -3.8516 0.3670 -0.9196 0
M  V30 20 C -5.2467 0.1679 -0.6278 0
M  V30 21 C -6.2154 0.9903 -1.2178 0
M  V30 22 C -7.5710 0.7918 -0.9341 0
M  V30 23 C -7.9683 -0.2378 -0.0672 0
M  V30 24 C -9.4014 -0.4415 0.2421 0
M  V30 25 C -10.0921 -1.6296 -0.1118 0
M  V30 26 C -11.4514 -1.7833 0.2613 0
M  V30 27 C -12.1374 -2.9572 -0.0779 0
M  V30 28 C -11.4753 -3.9585 -0.7868 0
M  V30 29 N -10.1797 -3.7918 -1.1554 0
M  V30 30 C -9.4831 -2.6675 -0.8459 0
M  V30 31 C -12.1045 -0.7613 0.9651 0
M  V30 32 C -11.4243 0.4116 1.2928 0
M  V30 33 C -10.0853 0.5724 0.9338 0
M  V30 34 C -6.9925 -1.0503 0.5319 0
M  V30 35 C -5.6383 -0.8506 0.2493 0
M  V30 36 S -0.0903 0.8989 -0.2576 0
M  V30 37 C 6.1205 1.0625 -1.3062 0
M  V30 38 C 7.4728 1.1009 -0.9522 0
M  V30 39 C 9.8132 -0.9822 -0.2171 0
M  V30 40 N 10.7341 -1.9302 -0.5319 0
M  V30 41 C 12.0478 -1.7884 -0.2214 0
M  V30 42 H 13.5388 -0.5586 0.7106 0
M  V30 43 H 9.0531 3.1395 1.7711 0
M  V30 44 H 11.4179 3.3427 2.4029 0
M  V30 45 H 13.0384 1.6001 1.7800 0
M  V30 46 H 7.1290 1.3348 2.4293 0
M  V30 47 H 4.7472 1.2813 1.8032 0
M  V30 48 H 1.3391 0.6856 -3.5141 0
M  V30 49 H -1.2398 0.4536 -3.5997 0
M  V30 50 H -5.9236 1.7841 -1.8950 0
M  V30 51 H -8.3111 1.4327 -1.3974 0
M  V30 52 H -13.1745 -3.0985 0.2032 0
M  V30 53 H -11.9936 -4.8697 -1.0493 0
M  V30 54 H -8.4599 -2.5913 -1.1813 0
M  V30 55 H -13.1426 -0.8690 1.2569 0
M  V30 56 H -11.9348 1.1982 1.8346 0
M  V30 57 H -9.5725 1.4851 1.2131 0
M  V30 58 H -7.2791 -1.8385 1.2167 0
M  V30 59 H -4.8985 -1.4898 0.7169 0
M  V30 60 H 5.8446 0.9831 -2.3502 0
M  V30 61 H 8.2262 1.0652 -1.7296 0
M  V30 62 H 8.7811 -1.1705 -0.4747 0
M  V30 63 H 12.7492 -2.5651 -0.4906 0
M  V30 END ATOM
M  V30 BEGIN BOND
M  V30 1 2 1 2
M  V30 2 1 2 3
M  V30 3 1 3 4
M  V30 4 2 4 5
M  V30 5 1 5 6
M  V30 6 2 6 7
M  V30 7 1 4 8
M  V30 8 2 8 9
M  V30 9 1 9 10
M  V30 10 2 10 11
M  V30 11 1 11 12
M  V30 12 3 12 13
M  V30 13 1 13 14
M  V30 14 2 14 15
M  V30 15 1 15 16
M  V30 16 2 16 17
M  V30 17 1 17 18
M  V30 18 3 18 19
M  V30 19 1 19 20
M  V30 20 2 20 21
M  V30 21 1 21 22
M  V30 22 2 22 23
M  V30 23 1 23 24
M  V30 24 1 24 25
M  V30 25 1 25 26
M  V30 26 2 26 27
M  V30 27 1 27 28
M  V30 28 2 28 29
M  V30 29 1 29 30
M  V30 30 1 26 31
M  V30 31 2 31 32
M  V30 32 1 32 33
M  V30 33 1 23 34
M  V30 34 2 34 35
M  V30 35 1 17 36
M  V30 36 1 11 37
M  V30 37 2 37 38
M  V30 38 2 3 39
M  V30 39 1 39 40
M  V30 40 2 40 41
M  V30 41 1 41 1
M  V30 42 1 7 2
M  V30 43 1 38 8
M  V30 44 1 36 14
M  V30 45 1 35 20
M  V30 46 2 33 24
M  V30 47 2 30 25
M  V30 48 1 1 42
M  V30 49 1 5 43
M  V30 50 1 6 44
M  V30 51 1 7 45
M  V30 52 1 9 46
M  V30 53 1 10 47
M  V30 54 1 15 48
M  V30 55 1 16 49
M  V30 56 1 21 50
M  V30 57 1 22 51
M  V30 58 1 27 52
M  V30 59 1 28 53
M  V30 60 1 30 54
M  V30 61 1 31 55
M  V30 62 1 32 56
M  V30 63 1 33 57
M  V30 64 1 34 58
M  V30 65 1 35 59
M  V30 66 1 37 60
M  V30 67 1 38 61
M  V30 68 1 39 62
M  V30 69 1 41 63
M  V30 END BOND
M  V30 END CTAB
M  END

$$$$
