
     RDKit          3D

  0  0  0  0  0  0  0  0  0  0999 V3000
M  V30 BEGIN CTAB
M  V30 COUNTS 63 69 0 0 0
M  V30 BEGIN ATOM
M  V30 1 C 12.2545 -2.1931 1.6178 0
M  V30 2 C 11.3645 -2.1552 0.5363 0
M  V30 3 C 10.0796 -1.5770 0.7005 0
M  V30 4 C 9.1826 -1.5484 -0.3992 0
M  V30 5 C 9.5970 -2.0653 -1.6378 0
M  V30 6 C 10.8654 -2.6263 -1.7885 0
M  V30 7 C 11.7444 -2.6778 -0.7078 0
M  V30 8 C 7.8085 -1.0076 -0.2907 0
M  V30 9 C 6.8728 -1.6119 0.5646 0
M  V30 10 C 5.5704 -1.1109 0.6515 0
M  V30 11 C 5.1893 -0.0081 -0.1229 0
M  V30 12 C 3.8479 0.5052 -0.0330 0
M  V30 13 C 2.7234 0.9321 0.0433 0
M  V30 14 C 1.3827 1.4371 0.1351 0
M  V30 15 C 1.0321 2.7373 0.4733 0
M  V30 16 C -0.3527 2.9425 0.4853 0
M  V30 17 C -1.0714 1.8002 0.1577 0
M  V30 18 C -2.5020 1.7058 0.0888 0
M  V30 19 C -3.7028 1.6214 0.0299 0
M  V30 20 C -5.1360 1.5146 -0.0423 0
M  V30 21 C -5.9320 2.0331 0.9869 0
M  V30 22 C -7.3245 1.9235 0.9194 0
M  V30 23 C -7.9319 1.2865 -0.1744 0
M  V30 24 C -9.4075 1.1901 -0.2545 0
M  V30 25 C -10.0886 -0.0545 -0.3028 0
M  V30 26 C -11.5008 -0.0711 -0.4347 0
M  V30 27 C -12.1810 -1.2949 -0.4897 0
M  V30 28 C -11.4610 -2.4850 -0.3990 0
M  V30 29 N -10.1118 -2.4568 -0.2500 0
M  V30 30 C -9.4172 -1.2897 -0.1967 0
M  V30 31 C -12.2131 1.1344 -0.5000 0
M  V30 32 C -11.5390 2.3525 -0.4266 0
M  V30 33 C -10.1497 2.3819 -0.3032 0
M  V30 34 C -7.1298 0.7816 -1.2110 0
M  V30 35 C -5.7377 0.8903 -1.1419 0
M  V30 36 S -0.0075 0.5351 -0.1488 0
M  V30 37 C 6.1140 0.5889 -0.9888 0
M  V30 38 C 7.4167 0.0881 -1.0767 0
M  V30 39 C 9.7556 -1.0250 1.9567 0
M  V30 40 N 10.6473 -1.0763 2.9812 0
M  V30 41 C 11.8712 -1.6469 2.8418 0
M  V30 42 H 13.2384 -2.6357 1.5160 0
M  V30 43 H 8.9262 -2.0495 -2.4886 0
M  V30 44 H 11.1664 -3.0286 -2.7474 0
M  V30 45 H 12.7243 -3.1195 -0.8464 0
M  V30 46 H 7.1524 -2.4715 1.1614 0
M  V30 47 H 4.8607 -1.5848 1.3190 0
M  V30 48 H 1.7512 3.5138 0.7018 0
M  V30 49 H -0.8113 3.8939 0.7234 0
M  V30 50 H -5.4764 2.5209 1.8404 0
M  V30 51 H -7.9290 2.3272 1.7225 0
M  V30 52 H -13.2589 -1.3307 -0.5961 0
M  V30 53 H -11.9774 -3.4348 -0.4384 0
M  V30 54 H -8.3465 -1.3388 -0.0575 0
M  V30 55 H -13.2920 1.1344 -0.6002 0
M  V30 56 H -12.0955 3.2798 -0.4722 0
M  V30 57 H -9.6469 3.3410 -0.2638 0
M  V30 58 H -7.5833 0.3048 -2.0714 0
M  V30 59 H -5.1315 0.4903 -1.9459 0
M  V30 60 H 5.8279 1.4391 -1.5964 0
M  V30 61 H 8.1220 0.5572 -1.7514 0
M  V30 62 H 8.8053 -0.5404 2.1308 0
M  V30 63 H 12.5523 -1.6688 3.6821 0
M  V30 END ATOM
M  V30 BEGIN BOND
M  V30 1 2 1 2
M  V30 2 1 2 3
M  V30 3 1 3 4
M  V30 4 2 4 5
M  V30 5 1 5 6
M  V30 6 2 6 7
M  V30 7 1 4 8
M  V30 8 2 8 9
M  V30 9 1 9 10
M  V30 10 2 10 11
M  V30 11 1 11 12
M  V30 12 3 12 13
M  V30 13 1 13 14
M  V30 14 2 14 15
M  V30 15 1 15 16
M  V30 16 2 16 17
M  V30 17 1 17 18
M  V30 18 3 18 19
M  V30 19 1 19 20
M  V30 20 2 20 21
M  V30 21 1 21 22
M  V30 22 2 22 23
M  V30 23 1 23 24
M  V30 24 1 24 25
M  V30 25 1 25 26
M  V30 26 2 26 27
M  V30 27 1 27 28
M  V30 28 2 28 29
M  V30 29 1 29 30
M  V30 30 1 26 31
M  V30 31 2 31 32
M  V30 32 1 32 33
M  V30 33 1 23 34
M  V30 34 2 34 35
M  V30 35 1 17 36
M  V30 36 1 11 37
M  V30 37 2 37 38
M  V30 38 2 3 39
M  V30 39 1 39 40
M  V30 40 2 40 41
M  V30 41 1 41 1
M  V30 42 1 7 2
M  V30 43 1 38 8
M  V30 44 1 36 14
M  V30 45 1 35 20
M  V30 46 2 33 24
M  V30 47 2 30 25
M  V30 48 1 1 42
M  V30 49 1 5 43
M  V30 50 1 6 44
M  V30 51 1 7 45
M  V30 52 1 9 46
M  V30 53 1 10 47
M  V30 54 1 15 48
M  V30 55 1 16 49
M  V30 56 1 21 50
M  V30 57 1 22 51
M  V30 58 1 27 52
M  V30 59 1 28 53
M  V30 60 1 30 54
M  V30 61 1 31 55
M  V30 62 1 32 56
M  V30 63 1 33 57
M  V30 64 1 34 58
M  V30 65 1 35 59
M  V30 66 1 37 60
M  V30 67 1 38 61
M  V30 68 1 39 62
M  V30 69 1 41 63
M  V30 END BOND
M  V30 END CTAB
M  END

$$$$
