
     RDKit          3D

  0  0  0  0  0  0  0  0  0  0999 V3000
M  V30 BEGIN CTAB
M  V30 COUNTS 63 69 0 0 0
M  V30 BEGIN ATOM
M  V30 1 C -12.4952 0.6275 -0.3898 0
M  V30 2 C -11.5523 0.9684 0.5889 0
M  V30 3 C -10.1930 0.6019 0.4166 0
M  V30 4 C -9.2458 0.9466 1.4160 0
M  V30 5 C -9.6683 1.6727 2.5418 0
M  V30 6 C -11.0071 2.0327 2.6972 0
M  V30 7 C -11.9475 1.6781 1.7312 0
M  V30 8 C -7.8207 0.5545 1.3304 0
M  V30 9 C -6.8194 1.5379 1.2947 0
M  V30 10 C -5.4717 1.1699 1.2354 0
M  V30 11 C -5.1133 -0.1839 1.2208 0
M  V30 12 C -3.7262 -0.5620 1.1596 0
M  V30 13 C -2.5644 -0.8788 1.1082 0
M  V30 14 C -1.1807 -1.2559 1.0467 0
M  V30 15 C -0.6398 -2.4233 1.5686 0
M  V30 16 C 0.7405 -2.5254 1.3599 0
M  V30 17 C 1.2660 -1.4368 0.6768 0
M  V30 18 C 2.6458 -1.2640 0.3206 0
M  V30 19 C 3.8044 -1.1188 0.0213 0
M  V30 20 C 5.1875 -0.9454 -0.3360 0
M  V30 21 C 6.1271 -1.9289 -0.0025 0
M  V30 22 C 7.4711 -1.7610 -0.3498 0
M  V30 23 C 7.8883 -0.6033 -1.0255 0
M  V30 24 C 9.3079 -0.4385 -1.4125 0
M  V30 25 C 10.1087 0.6325 -0.9365 0
M  V30 26 C 11.4474 0.7558 -1.3888 0
M  V30 27 C 12.2436 1.8129 -0.9287 0
M  V30 28 C 11.7135 2.7254 -0.0179 0
M  V30 29 N 10.4380 2.5848 0.4250 0
M  V30 30 C 9.6345 1.5750 -0.0015 0
M  V30 31 C 11.9736 -0.1839 -2.2859 0
M  V30 32 C 11.1876 -1.2458 -2.7309 0
M  V30 33 C 9.8677 -1.3743 -2.2979 0
M  V30 34 C 6.9398 0.3737 -1.3698 0
M  V30 35 C 5.5962 0.2052 -1.0218 0
M  V30 36 S 0.0358 -0.3455 0.3270 0
M  V30 37 C -6.1077 -1.1688 1.2699 0
M  V30 38 C -7.4555 -0.8017 1.3295 0
M  V30 39 C -9.8326 -0.0733 -0.7674 0
M  V30 40 N -10.7749 -0.3833 -1.6964 0
M  V30 41 C -12.0824 -0.0572 -1.5317 0
M  V30 42 H -13.5396 0.8927 -0.2755 0
M  V30 43 H -8.9585 1.9469 3.3131 0
M  V30 44 H -11.3180 2.5850 3.5747 0
M  V30 45 H -12.9828 1.9651 1.8731 0
M  V30 46 H -7.0834 2.5884 1.3059 0
M  V30 47 H -4.7102 1.9398 1.2020 0
M  V30 48 H -1.2212 -3.1775 2.0832 0
M  V30 49 H 1.3327 -3.3663 1.6971 0
M  V30 50 H 5.8208 -2.8247 0.5242 0
M  V30 51 H 8.1880 -2.5293 -0.0866 0
M  V30 52 H 13.2668 1.9291 -1.2656 0
M  V30 53 H 12.3209 3.5438 0.3450 0
M  V30 54 H 8.6354 1.5108 0.4057 0
M  V30 55 H 12.9954 -0.1011 -2.6371 0
M  V30 56 H 11.6015 -1.9707 -3.4199 0
M  V30 57 H 9.2721 -2.1998 -2.6690 0
M  V30 58 H 7.2417 1.2634 -1.9089 0
M  V30 59 H 4.8765 0.9693 -1.2900 0
M  V30 60 H -5.8412 -2.2189 1.2652 0
M  V30 61 H -8.2148 -1.5728 1.3769 0
M  V30 62 H -8.8066 -0.3461 -0.9701 0
M  V30 63 H -12.8023 -0.3229 -2.2941 0
M  V30 END ATOM
M  V30 BEGIN BOND
M  V30 1 2 1 2
M  V30 2 1 2 3
M  V30 3 1 3 4
M  V30 4 2 4 5
M  V30 5 1 5 6
M  V30 6 2 6 7
M  V30 7 1 4 8
M  V30 8 2 8 9
M  V30 9 1 9 10
M  V30 10 2 10 11
M  V30 11 1 11 12
M  V30 12 3 12 13
M  V30 13 1 13 14
M  V30 14 2 14 15
M  V30 15 1 15 16
M  V30 16 2 16 17
M  V30 17 1 17 18
M  V30 18 3 18 19
M  V30 19 1 19 20
M  V30 20 2 20 21
M  V30 21 1 21 22
M  V30 22 2 22 23
M  V30 23 1 23 24
M  V30 24 1 24 25
M  V30 25 1 25 26
M  V30 26 2 26 27
M  V30 27 1 27 28
M  V30 28 2 28 29
M  V30 29 1 29 30
M  V30 30 1 26 31
M  V30 31 2 31 32
M  V30 32 1 32 33
M  V30 33 1 23 34
M  V30 34 2 34 35
M  V30 35 1 17 36
M  V30 36 1 11 37
M  V30 37 2 37 38
M  V30 38 2 3 39
M  V30 39 1 39 40
M  V30 40 2 40 41
M  V30 41 1 41 1
M  V30 42 1 7 2
M  V30 43 1 38 8
M  V30 44 1 36 14
M  V30 45 1 35 20
M  V30 46 2 33 24
M  V30 47 2 30 25
M  V30 48 1 1 42
M  V30 49 1 5 43
M  V30 50 1 6 44
M  V30 51 1 7 45
M  V30 52 1 9 46
M  V30 53 1 10 47
M  V30 54 1 15 48
M  V30 55 1 16 49
M  V30 56 1 21 50
M  V30 57 1 22 51
M  V30 58 1 27 52
M  V30 59 1 28 53
M  V30 60 1 30 54
M  V30 61 1 31 55
M  V30 62 1 32 56
M  V30 63 1 33 57
M  V30 64 1 34 58
M  V30 65 1 35 59
M  V30 66 1 37 60
M  V30 67 1 38 61
M  V30 68 1 39 62
M  V30 69 1 41 63
M  V30 END BOND
M  V30 END CTAB
M  END

$$$$
