
     RDKit          3D

  0  0  0  0  0  0  0  0  0  0999 V3000
M  V30 BEGIN CTAB
M  V30 COUNTS 63 69 0 0 0
M  V30 BEGIN ATOM
M  V30 1 C -11.9906 -1.7887 1.4329 0
M  V30 2 C -11.3920 -0.6225 0.9379 0
M  V30 3 C -10.0001 -0.6057 0.6657 0
M  V30 4 C -9.4014 0.5810 0.1688 0
M  V30 5 C -10.2051 1.7072 -0.0733 0
M  V30 6 C -11.5741 1.6773 0.1939 0
M  V30 7 C -12.1662 0.5220 0.7021 0
M  V30 8 C -7.9485 0.6883 -0.0925 0
M  V30 9 C -7.4828 0.9468 -1.3912 0
M  V30 10 C -6.1119 1.0697 -1.6369 0
M  V30 11 C -5.1958 0.9440 -0.5852 0
M  V30 12 C -3.7852 1.0722 -0.8388 0
M  V30 13 C -2.6039 1.1807 -1.0516 0
M  V30 14 C -1.1972 1.3118 -1.3052 0
M  V30 15 C -0.6288 2.0794 -2.3127 0
M  V30 16 C 0.7698 2.0252 -2.3165 0
M  V30 17 C 1.2821 1.2151 -1.3118 0
M  V30 18 C 2.6759 0.9799 -1.0617 0
M  V30 19 C 3.8464 0.7859 -0.8496 0
M  V30 20 C 5.2442 0.5582 -0.5947 0
M  V30 21 C 5.9044 -0.5141 -1.2073 0
M  V30 22 C 7.2638 -0.7318 -0.9632 0
M  V30 23 C 7.9723 0.1154 -0.0956 0
M  V30 24 C 9.4183 -0.0956 0.1432 0
M  V30 25 C 9.9291 -1.2806 0.7340 0
M  V30 26 C 11.3309 -1.4355 0.8842 0
M  V30 27 C 11.8448 -2.6042 1.4615 0
M  V30 28 C 10.9692 -3.5970 1.8973 0
M  V30 29 N 9.6284 -3.4283 1.7685 0
M  V30 30 C 9.0930 -2.3111 1.2098 0
M  V30 31 C 12.1977 -0.4165 0.4657 0
M  V30 32 C 11.6863 0.7543 -0.0924 0
M  V30 33 C 10.3103 0.9155 -0.2511 0
M  V30 34 C 7.3086 1.1963 0.5063 0
M  V30 35 C 5.9494 1.4137 0.2611 0
M  V30 36 S 0.0176 0.5649 -0.4148 0
M  V30 37 C -5.6560 0.6982 0.7143 0
M  V30 38 C -7.0268 0.5751 0.9610 0
M  V30 39 C -9.2675 -1.7913 0.8776 0
M  V30 40 N -9.8839 -2.9045 1.3547 0
M  V30 41 C -11.2112 -2.9261 1.6389 0
M  V30 42 H -13.0514 -1.8224 1.6517 0
M  V30 43 H -9.7648 2.6201 -0.4563 0
M  V30 44 H -12.1783 2.5566 0.0109 0
M  V30 45 H -13.2308 0.5204 0.9038 0
M  V30 46 H -8.1810 1.0462 -2.2131 0
M  V30 47 H -5.7667 1.2635 -2.6452 0
M  V30 48 H -1.2034 2.6638 -3.0203 0
M  V30 49 H 1.3840 2.5622 -3.0280 0
M  V30 50 H 5.3699 -1.1782 -1.8759 0
M  V30 51 H 7.7661 -1.5576 -1.4521 0
M  V30 52 H 12.9129 -2.7442 1.5839 0
M  V30 53 H 11.3560 -4.5013 2.3480 0
M  V30 54 H 8.0166 -2.2327 1.1564 0
M  V30 55 H 13.2701 -0.5234 0.5768 0
M  V30 56 H 12.3600 1.5399 -0.4098 0
M  V30 57 H 9.9379 1.8278 -0.7019 0
M  V30 58 H 7.8430 1.8660 1.1689 0
M  V30 59 H 5.4493 2.2489 0.7367 0
M  V30 60 H -4.9560 0.6050 1.5359 0
M  V30 61 H -7.3711 0.3946 1.9719 0
M  V30 62 H -8.2112 -1.8478 0.6562 0
M  V30 63 H -11.6644 -3.8322 2.0182 0
M  V30 END ATOM
M  V30 BEGIN BOND
M  V30 1 2 1 2
M  V30 2 1 2 3
M  V30 3 1 3 4
M  V30 4 2 4 5
M  V30 5 1 5 6
M  V30 6 2 6 7
M  V30 7 1 4 8
M  V30 8 2 8 9
M  V30 9 1 9 10
M  V30 10 2 10 11
M  V30 11 1 11 12
M  V30 12 3 12 13
M  V30 13 1 13 14
M  V30 14 2 14 15
M  V30 15 1 15 16
M  V30 16 2 16 17
M  V30 17 1 17 18
M  V30 18 3 18 19
M  V30 19 1 19 20
M  V30 20 2 20 21
M  V30 21 1 21 22
M  V30 22 2 22 23
M  V30 23 1 23 24
M  V30 24 1 24 25
M  V30 25 1 25 26
M  V30 26 2 26 27
M  V30 27 1 27 28
M  V30 28 2 28 29
M  V30 29 1 29 30
M  V30 30 1 26 31
M  V30 31 2 31 32
M  V30 32 1 32 33
M  V30 33 1 23 34
M  V30 34 2 34 35
M  V30 35 1 17 36
M  V30 36 1 11 37
M  V30 37 2 37 38
M  V30 38 2 3 39
M  V30 39 1 39 40
M  V30 40 2 40 41
M  V30 41 1 41 1
M  V30 42 1 7 2
M  V30 43 1 38 8
M  V30 44 1 36 14
M  V30 45 1 35 20
M  V30 46 2 33 24
M  V30 47 2 30 25
M  V30 48 1 1 42
M  V30 49 1 5 43
M  V30 50 1 6 44
M  V30 51 1 7 45
M  V30 52 1 9 46
M  V30 53 1 10 47
M  V30 54 1 15 48
M  V30 55 1 16 49
M  V30 56 1 21 50
M  V30 57 1 22 51
M  V30 58 1 27 52
M  V30 59 1 28 53
M  V30 60 1 30 54
M  V30 61 1 31 55
M  V30 62 1 32 56
M  V30 63 1 33 57
M  V30 64 1 34 58
M  V30 65 1 35 59
M  V30 66 1 37 60
M  V30 67 1 38 61
M  V30 68 1 39 62
M  V30 69 1 41 63
M  V30 END BOND
M  V30 END CTAB
M  END

$$$$
