
     RDKit          3D

  0  0  0  0  0  0  0  0  0  0999 V3000
M  V30 BEGIN CTAB
M  V30 COUNTS 63 69 0 0 0
M  V30 BEGIN ATOM
M  V30 1 C -12.7271 0.4209 0.3174 0
M  V30 2 C -11.6796 -0.4321 0.6882 0
M  V30 3 C -10.3375 -0.0553 0.4270 0
M  V30 4 C -9.2821 -0.9253 0.8062 0
M  V30 5 C -9.5885 -2.1578 1.4053 0
M  V30 6 C -10.9127 -2.5220 1.6503 0
M  V30 7 C -11.9546 -1.6613 1.3036 0
M  V30 8 C -7.8579 -0.5775 0.6038 0
M  V30 9 C -7.2939 0.5177 1.2763 0
M  V30 10 C -5.9519 0.8530 1.0742 0
M  V30 11 C -5.1598 0.0862 0.2108 0
M  V30 12 C -3.7825 0.4395 -0.0095 0
M  V30 13 C -2.6303 0.7375 -0.2010 0
M  V30 14 C -1.2601 1.0935 -0.4371 0
M  V30 15 C -0.8250 2.2843 -1.0033 0
M  V30 16 C 0.5668 2.3487 -1.1355 0
M  V30 17 C 1.2069 1.2069 -0.6727 0
M  V30 18 C 2.6233 0.9774 -0.7016 0
M  V30 19 C 3.8124 0.7831 -0.7329 0
M  V30 20 C 5.2317 0.5501 -0.7791 0
M  V30 21 C 5.7558 -0.4158 -1.6478 0
M  V30 22 C 7.1346 -0.6319 -1.7054 0
M  V30 23 C 8.0024 0.1065 -0.8847 0
M  V30 24 C 9.4653 -0.1035 -0.9710 0
M  V30 25 C 10.2352 -0.5658 0.1275 0
M  V30 26 C 11.6393 -0.7072 -0.0168 0
M  V30 27 C 12.4075 -1.1606 1.0631 0
M  V30 28 C 11.7790 -1.4819 2.2655 0
M  V30 29 N 10.4326 -1.3635 2.3850 0
M  V30 30 C 9.6555 -0.9224 1.3616 0
M  V30 31 C 12.2530 -0.4033 -1.2400 0
M  V30 32 C 11.4869 0.0323 -2.3200 0
M  V30 33 C 10.1058 0.1780 -2.1896 0
M  V30 34 C 7.4746 1.0774 -0.0196 0
M  V30 35 C 6.0937 1.2965 0.0341 0
M  V30 36 S 0.0640 0.1141 -0.1016 0
M  V30 37 C -5.7139 -1.0207 -0.4453 0
M  V30 38 C -7.0563 -1.3543 -0.2469 0
M  V30 39 C -10.1082 1.1696 -0.2316 0
M  V30 40 N -11.1502 1.9687 -0.5797 0
M  V30 41 C -12.4372 1.6270 -0.3176 0
M  V30 42 H -13.7595 0.1544 0.5096 0
M  V30 43 H -8.7950 -2.8334 1.6997 0
M  V30 44 H -11.1323 -3.4749 2.1158 0
M  V30 45 H -12.9758 -1.9600 1.5078 0
M  V30 46 H -7.8960 1.1153 1.9502 0
M  V30 47 H -5.5338 1.7098 1.5889 0
M  V30 48 H -1.4901 3.0788 -1.3164 0
M  V30 49 H 1.0852 3.1978 -1.5629 0
M  V30 50 H 5.0988 -0.9976 -2.2825 0
M  V30 51 H 7.5266 -1.3756 -2.3863 0
M  V30 52 H 13.4812 -1.2688 0.9774 0
M  V30 53 H 12.3627 -1.8347 3.1043 0
M  V30 54 H 8.5878 -0.8672 1.5183 0
M  V30 55 H 13.3250 -0.5129 -1.3634 0
M  V30 56 H 11.9666 0.2618 -3.2629 0
M  V30 57 H 9.5329 0.5269 -3.0401 0
M  V30 58 H 8.1319 1.6675 0.6086 0
M  V30 59 H 5.7004 2.0521 0.7041 0
M  V30 60 H -5.1100 -1.6222 -1.1135 0
M  V30 61 H -7.4747 -2.2074 -0.7674 0
M  V30 62 H -9.1091 1.4936 -0.4863 0
M  V30 63 H -13.2394 2.2902 -0.6118 0
M  V30 END ATOM
M  V30 BEGIN BOND
M  V30 1 2 1 2
M  V30 2 1 2 3
M  V30 3 1 3 4
M  V30 4 2 4 5
M  V30 5 1 5 6
M  V30 6 2 6 7
M  V30 7 1 4 8
M  V30 8 2 8 9
M  V30 9 1 9 10
M  V30 10 2 10 11
M  V30 11 1 11 12
M  V30 12 3 12 13
M  V30 13 1 13 14
M  V30 14 2 14 15
M  V30 15 1 15 16
M  V30 16 2 16 17
M  V30 17 1 17 18
M  V30 18 3 18 19
M  V30 19 1 19 20
M  V30 20 2 20 21
M  V30 21 1 21 22
M  V30 22 2 22 23
M  V30 23 1 23 24
M  V30 24 1 24 25
M  V30 25 1 25 26
M  V30 26 2 26 27
M  V30 27 1 27 28
M  V30 28 2 28 29
M  V30 29 1 29 30
M  V30 30 1 26 31
M  V30 31 2 31 32
M  V30 32 1 32 33
M  V30 33 1 23 34
M  V30 34 2 34 35
M  V30 35 1 17 36
M  V30 36 1 11 37
M  V30 37 2 37 38
M  V30 38 2 3 39
M  V30 39 1 39 40
M  V30 40 2 40 41
M  V30 41 1 41 1
M  V30 42 1 7 2
M  V30 43 1 38 8
M  V30 44 1 36 14
M  V30 45 1 35 20
M  V30 46 2 33 24
M  V30 47 2 30 25
M  V30 48 1 1 42
M  V30 49 1 5 43
M  V30 50 1 6 44
M  V30 51 1 7 45
M  V30 52 1 9 46
M  V30 53 1 10 47
M  V30 54 1 15 48
M  V30 55 1 16 49
M  V30 56 1 21 50
M  V30 57 1 22 51
M  V30 58 1 27 52
M  V30 59 1 28 53
M  V30 60 1 30 54
M  V30 61 1 31 55
M  V30 62 1 32 56
M  V30 63 1 33 57
M  V30 64 1 34 58
M  V30 65 1 35 59
M  V30 66 1 37 60
M  V30 67 1 38 61
M  V30 68 1 39 62
M  V30 69 1 41 63
M  V30 END BOND
M  V30 END CTAB
M  END

$$$$
