
     RDKit          3D

  0  0  0  0  0  0  0  0  0  0999 V3000
M  V30 BEGIN CTAB
M  V30 COUNTS 63 69 0 0 0
M  V30 BEGIN ATOM
M  V30 1 C 12.1467 1.3742 1.9629 0
M  V30 2 C 11.4512 0.7146 0.9410 0
M  V30 3 C 10.0671 0.4435 1.0912 0
M  V30 4 C 9.3696 -0.2207 0.0486 0
M  V30 5 C 10.0716 -0.6247 -1.0991 0
M  V30 6 C 11.4342 -0.3574 -1.2329 0
M  V30 7 C 12.1217 0.3142 -0.2230 0
M  V30 8 C 7.9159 -0.4941 0.1126 0
M  V30 9 C 7.4444 -1.8160 0.0749 0
M  V30 10 C 6.0712 -2.0759 0.1172 0
M  V30 11 C 5.1577 -1.0166 0.1873 0
M  V30 12 C 3.7447 -1.2846 0.2345 0
M  V30 13 C 2.5611 -1.5086 0.2760 0
M  V30 14 C 1.1515 -1.7747 0.3279 0
M  V30 15 C 0.5733 -2.9929 0.6586 0
M  V30 16 C -0.8258 -2.9566 0.6345 0
M  V30 17 C -1.3284 -1.7103 0.2854 0
M  V30 18 C -2.7197 -1.3713 0.1851 0
M  V30 19 C -3.8878 -1.0856 0.1024 0
M  V30 20 C -5.2822 -0.7434 0.0050 0
M  V30 21 C -5.8298 0.2194 0.8620 0
M  V30 22 C -7.1845 0.5521 0.7684 0
M  V30 23 C -8.0013 -0.0682 -0.1911 0
M  V30 24 C -9.4411 0.2662 -0.2784 0
M  V30 25 C -9.9031 1.5702 -0.5962 0
M  V30 26 C -11.2972 1.8306 -0.6123 0
M  V30 27 C -11.7622 3.1161 -0.9194 0
M  V30 28 C -10.8469 4.1234 -1.2204 0
M  V30 29 N -9.5158 3.8570 -1.2238 0
M  V30 30 C -9.0272 2.6240 -0.9274 0
M  V30 31 C -12.2059 0.8011 -0.3311 0
M  V30 32 C -11.7447 -0.4824 -0.0427 0
M  V30 33 C -10.3758 -0.7494 -0.0180 0
M  V30 34 C -7.4505 -1.0425 -1.0389 0
M  V30 35 C -6.0957 -1.3752 -0.9439 0
M  V30 36 S -0.0548 -0.6489 0.0059 0
M  V30 37 C 5.6224 0.3043 0.2100 0
M  V30 38 C 6.9953 0.5652 0.1681 0
M  V30 39 C 9.4426 0.8259 2.2960 0
M  V30 40 N 10.1513 1.4605 3.2665 0
M  V30 41 C 11.4712 1.7445 3.1247 0
M  V30 42 H 13.2029 1.5963 1.8664 0
M  V30 43 H 9.5560 -1.1357 -1.9034 0
M  V30 44 H 11.9589 -0.6683 -2.1272 0
M  V30 45 H 13.1794 0.5142 -0.3483 0
M  V30 46 H 8.1407 -2.6439 0.0208 0
M  V30 47 H 5.7221 -3.1014 0.0951 0
M  V30 48 H 1.1412 -3.8790 0.9109 0
M  V30 49 H -1.4472 -3.8119 0.8664 0
M  V30 50 H -5.2107 0.7100 1.6036 0
M  V30 51 H -7.5981 1.2913 1.4436 0
M  V30 52 H -12.8227 3.3382 -0.9318 0
M  V30 53 H -11.1959 5.1187 -1.4610 0
M  V30 54 H -7.9574 2.4758 -0.9670 0
M  V30 55 H -13.2732 0.9876 -0.3419 0
M  V30 56 H -12.4521 -1.2739 0.1686 0
M  V30 57 H -10.0410 -1.7513 0.2231 0
M  V30 58 H -8.0689 -1.5384 -1.7770 0
M  V30 59 H -5.6831 -2.1245 -1.6089 0
M  V30 60 H 4.9241 1.1314 0.2579 0
M  V30 61 H 7.3418 1.5914 0.1777 0
M  V30 62 H 8.3992 0.6140 2.4815 0
M  V30 63 H 12.0000 2.2521 3.9204 0
M  V30 END ATOM
M  V30 BEGIN BOND
M  V30 1 2 1 2
M  V30 2 1 2 3
M  V30 3 1 3 4
M  V30 4 2 4 5
M  V30 5 1 5 6
M  V30 6 2 6 7
M  V30 7 1 4 8
M  V30 8 2 8 9
M  V30 9 1 9 10
M  V30 10 2 10 11
M  V30 11 1 11 12
M  V30 12 3 12 13
M  V30 13 1 13 14
M  V30 14 2 14 15
M  V30 15 1 15 16
M  V30 16 2 16 17
M  V30 17 1 17 18
M  V30 18 3 18 19
M  V30 19 1 19 20
M  V30 20 2 20 21
M  V30 21 1 21 22
M  V30 22 2 22 23
M  V30 23 1 23 24
M  V30 24 1 24 25
M  V30 25 1 25 26
M  V30 26 2 26 27
M  V30 27 1 27 28
M  V30 28 2 28 29
M  V30 29 1 29 30
M  V30 30 1 26 31
M  V30 31 2 31 32
M  V30 32 1 32 33
M  V30 33 1 23 34
M  V30 34 2 34 35
M  V30 35 1 17 36
M  V30 36 1 11 37
M  V30 37 2 37 38
M  V30 38 2 3 39
M  V30 39 1 39 40
M  V30 40 2 40 41
M  V30 41 1 41 1
M  V30 42 1 7 2
M  V30 43 1 38 8
M  V30 44 1 36 14
M  V30 45 1 35 20
M  V30 46 2 33 24
M  V30 47 2 30 25
M  V30 48 1 1 42
M  V30 49 1 5 43
M  V30 50 1 6 44
M  V30 51 1 7 45
M  V30 52 1 9 46
M  V30 53 1 10 47
M  V30 54 1 15 48
M  V30 55 1 16 49
M  V30 56 1 21 50
M  V30 57 1 22 51
M  V30 58 1 27 52
M  V30 59 1 28 53
M  V30 60 1 30 54
M  V30 61 1 31 55
M  V30 62 1 32 56
M  V30 63 1 33 57
M  V30 64 1 34 58
M  V30 65 1 35 59
M  V30 66 1 37 60
M  V30 67 1 38 61
M  V30 68 1 39 62
M  V30 69 1 41 63
M  V30 END BOND
M  V30 END CTAB
M  END

$$$$
