
     RDKit          3D

  0  0  0  0  0  0  0  0  0  0999 V3000
M  V30 BEGIN CTAB
M  V30 COUNTS 63 69 0 0 0
M  V30 BEGIN ATOM
M  V30 1 C -12.3925 1.5720 0.6552 0
M  V30 2 C -11.5897 0.4250 0.6002 0
M  V30 3 C -10.1972 0.5496 0.3609 0
M  V30 4 C -9.3928 -0.6184 0.3012 0
M  V30 5 C -9.9871 -1.8735 0.5125 0
M  V30 6 C -11.3568 -1.9828 0.7529 0
M  V30 7 C -12.1576 -0.8423 0.7904 0
M  V30 8 C -7.9429 -0.5713 0.0050 0
M  V30 9 C -7.0153 -1.0524 0.9426 0
M  V30 10 C -5.6468 -1.0291 0.6562 0
M  V30 11 C -5.1950 -0.5335 -0.5733 0
M  V30 12 C -3.7867 -0.5100 -0.8680 0
M  V30 13 C -2.6072 -0.4901 -1.1158 0
M  V30 14 C -1.2028 -0.4660 -1.4119 0
M  V30 15 C -0.6487 -0.4220 -2.6842 0
M  V30 16 C 0.7509 -0.4066 -2.6690 0
M  V30 17 C 1.2780 -0.4388 -1.3850 0
M  V30 18 C 2.6759 -0.4318 -1.0583 0
M  V30 19 C 3.8498 -0.4255 -0.7847 0
M  V30 20 C 5.2514 -0.4178 -0.4591 0
M  V30 21 C 5.6732 -0.0265 0.8178 0
M  V30 22 C 7.0351 -0.0186 1.1343 0
M  V30 23 C 7.9878 -0.3926 0.1724 0
M  V30 24 C 9.4290 -0.4067 0.5112 0
M  V30 25 C 10.1366 0.7665 0.8825 0
M  V30 26 C 11.5054 0.6701 1.2417 0
M  V30 27 C 12.2104 1.8220 1.6148 0
M  V30 28 C 11.5602 3.0550 1.6146 0
M  V30 29 N 10.2559 3.1385 1.2476 0
M  V30 30 C 9.5384 2.0431 0.8836 0
M  V30 31 C 12.1517 -0.5734 1.2134 0
M  V30 32 C 11.4555 -1.7172 0.8257 0
M  V30 33 C 10.1075 -1.6361 0.4759 0
M  V30 34 C 7.5588 -0.7969 -1.1017 0
M  V30 35 C 6.1966 -0.8049 -1.4172 0
M  V30 36 S 0.0257 -0.4861 -0.2641 0
M  V30 37 C -6.1172 -0.0649 -1.5174 0
M  V30 38 C -7.4856 -0.0881 -1.2320 0
M  V30 39 C -9.6617 1.8459 0.2182 0
M  V30 40 N -10.4716 2.9355 0.2817 0
M  V30 41 C -11.8090 2.8269 0.4880 0
M  V30 42 H -13.4592 1.4992 0.8310 0
M  V30 43 H -9.3878 -2.7754 0.4735 0
M  V30 44 H -11.8009 -2.9581 0.9054 0
M  V30 45 H -13.2199 -0.9500 0.9756 0
M  V30 46 H -7.3521 -1.4386 1.8969 0
M  V30 47 H -4.9421 -1.3979 1.3918 0
M  V30 48 H -1.2340 -0.4013 -3.5944 0
M  V30 49 H 1.3552 -0.3730 -3.5663 0
M  V30 50 H 4.9500 0.2691 1.5684 0
M  V30 51 H 7.3480 0.2767 2.1283 0
M  V30 52 H 13.2550 1.7701 1.8984 0
M  V30 53 H 12.0965 3.9505 1.8988 0
M  V30 54 H 8.5092 2.1830 0.5849 0
M  V30 55 H 13.1975 -0.6592 1.4839 0
M  V30 56 H 11.9617 -2.6737 0.8013 0
M  V30 57 H 9.5840 -2.5412 0.1919 0
M  V30 58 H 8.2798 -1.0989 -1.8516 0
M  V30 59 H 5.8807 -1.1134 -2.4066 0
M  V30 60 H -5.7788 0.3148 -2.4740 0
M  V30 61 H -8.1896 0.2679 -1.9743 0
M  V30 62 H -8.6029 2.0046 0.0699 0
M  V30 63 H -12.4199 3.7187 0.5310 0
M  V30 END ATOM
M  V30 BEGIN BOND
M  V30 1 2 1 2
M  V30 2 1 2 3
M  V30 3 1 3 4
M  V30 4 2 4 5
M  V30 5 1 5 6
M  V30 6 2 6 7
M  V30 7 1 4 8
M  V30 8 2 8 9
M  V30 9 1 9 10
M  V30 10 2 10 11
M  V30 11 1 11 12
M  V30 12 3 12 13
M  V30 13 1 13 14
M  V30 14 2 14 15
M  V30 15 1 15 16
M  V30 16 2 16 17
M  V30 17 1 17 18
M  V30 18 3 18 19
M  V30 19 1 19 20
M  V30 20 2 20 21
M  V30 21 1 21 22
M  V30 22 2 22 23
M  V30 23 1 23 24
M  V30 24 1 24 25
M  V30 25 1 25 26
M  V30 26 2 26 27
M  V30 27 1 27 28
M  V30 28 2 28 29
M  V30 29 1 29 30
M  V30 30 1 26 31
M  V30 31 2 31 32
M  V30 32 1 32 33
M  V30 33 1 23 34
M  V30 34 2 34 35
M  V30 35 1 17 36
M  V30 36 1 11 37
M  V30 37 2 37 38
M  V30 38 2 3 39
M  V30 39 1 39 40
M  V30 40 2 40 41
M  V30 41 1 41 1
M  V30 42 1 7 2
M  V30 43 1 38 8
M  V30 44 1 36 14
M  V30 45 1 35 20
M  V30 46 2 33 24
M  V30 47 2 30 25
M  V30 48 1 1 42
M  V30 49 1 5 43
M  V30 50 1 6 44
M  V30 51 1 7 45
M  V30 52 1 9 46
M  V30 53 1 10 47
M  V30 54 1 15 48
M  V30 55 1 16 49
M  V30 56 1 21 50
M  V30 57 1 22 51
M  V30 58 1 27 52
M  V30 59 1 28 53
M  V30 60 1 30 54
M  V30 61 1 31 55
M  V30 62 1 32 56
M  V30 63 1 33 57
M  V30 64 1 34 58
M  V30 65 1 35 59
M  V30 66 1 37 60
M  V30 67 1 38 61
M  V30 68 1 39 62
M  V30 69 1 41 63
M  V30 END BOND
M  V30 END CTAB
M  END

$$$$
