
     RDKit          3D

  0  0  0  0  0  0  0  0  0  0999 V3000
M  V30 BEGIN CTAB
M  V30 COUNTS 63 69 0 0 0
M  V30 BEGIN ATOM
M  V30 1 C 12.3552 0.4791 1.2311 0
M  V30 2 C 11.4835 1.3632 0.5818 0
M  V30 3 C 10.1368 0.9830 0.3504 0
M  V30 4 C 9.2594 1.8874 -0.3031 0
M  V30 5 C 9.7514 3.1295 -0.7370 0
M  V30 6 C 11.0797 3.4897 -0.5090 0
M  V30 7 C 11.9417 2.6164 0.1525 0
M  V30 8 C 7.8292 1.5818 -0.5337 0
M  V30 9 C 6.9599 1.3875 0.5523 0
M  V30 10 C 5.6054 1.1199 0.3318 0
M  V30 11 C 5.1064 1.0541 -0.9750 0
M  V30 12 C 3.7122 0.7789 -1.2014 0
M  V30 13 C 2.5444 0.5481 -1.3910 0
M  V30 14 C 1.1537 0.2730 -1.6166 0
M  V30 15 C 0.5387 0.1970 -2.8591 0
M  V30 16 C -0.8294 -0.0866 -2.7737 0
M  V30 17 C -1.2712 -0.2296 -1.4653 0
M  V30 18 C -2.6195 -0.5222 -1.0688 0
M  V30 19 C -3.7517 -0.7680 -0.7359 0
M  V30 20 C -5.1033 -1.0614 -0.3388 0
M  V30 21 C -5.6703 -0.4040 0.7601 0
M  V30 22 C -6.9834 -0.6891 1.1465 0
M  V30 23 C -7.7444 -1.6275 0.4302 0
M  V30 24 C -9.1275 -1.9480 0.8505 0
M  V30 25 C -10.1659 -0.9804 0.8573 0
M  V30 26 C -11.4558 -1.3460 1.3202 0
M  V30 27 C -12.4855 -0.3960 1.3358 0
M  V30 28 C -12.2331 0.8974 0.8811 0
M  V30 29 N -11.0005 1.2300 0.4195 0
M  V30 30 C -9.9762 0.3371 0.3928 0
M  V30 31 C -11.7003 -2.6572 1.7512 0
M  V30 32 C -10.6809 -3.6076 1.7198 0
M  V30 33 C -9.4066 -3.2585 1.2723 0
M  V30 34 C -7.1667 -2.2937 -0.6623 0
M  V30 35 C -5.8533 -2.0081 -1.0477 0
M  V30 36 S 0.0180 -0.0080 -0.4091 0
M  V30 37 C 5.9663 1.2609 -2.0609 0
M  V30 38 C 7.3211 1.5283 -1.8414 0
M  V30 39 C 9.7304 -0.3032 0.7604 0
M  V30 40 N 10.6059 -1.1350 1.3839 0
M  V30 41 C 11.8910 -0.7732 1.6304 0
M  V30 42 H 13.3863 0.7516 1.4230 0
M  V30 43 H 9.0967 3.8310 -1.2402 0
M  V30 44 H 11.4411 4.4540 -0.8423 0
M  V30 45 H 12.9689 2.9172 0.3220 0
M  V30 46 H 7.3318 1.4455 1.5679 0
M  V30 47 H 4.9477 0.9674 1.1791 0
M  V30 48 H 1.0591 0.3410 -3.7972 0
M  V30 49 H -1.4720 -0.1837 -3.6393 0
M  V30 50 H -5.0969 0.3256 1.3193 0
M  V30 51 H -7.4073 -0.1811 2.0041 0
M  V30 52 H -13.4767 -0.6524 1.6907 0
M  V30 53 H -13.0221 1.6375 0.8870 0
M  V30 54 H -9.0254 0.6627 -0.0047 0
M  V30 55 H -12.6820 -2.9488 2.1053 0
M  V30 56 H -10.8775 -4.6197 2.0495 0
M  V30 57 H -8.6268 -4.0108 1.2709 0
M  V30 58 H -7.7361 -3.0283 -1.2186 0
M  V30 59 H -5.4228 -2.5255 -1.8968 0
M  V30 60 H 5.5896 1.2165 -3.0757 0
M  V30 61 H 7.9758 1.6868 -2.6897 0
M  V30 62 H 8.7270 -0.6614 0.5788 0
M  V30 63 H 12.5568 -1.4638 2.1304 0
M  V30 END ATOM
M  V30 BEGIN BOND
M  V30 1 2 1 2
M  V30 2 1 2 3
M  V30 3 1 3 4
M  V30 4 2 4 5
M  V30 5 1 5 6
M  V30 6 2 6 7
M  V30 7 1 4 8
M  V30 8 2 8 9
M  V30 9 1 9 10
M  V30 10 2 10 11
M  V30 11 1 11 12
M  V30 12 3 12 13
M  V30 13 1 13 14
M  V30 14 2 14 15
M  V30 15 1 15 16
M  V30 16 2 16 17
M  V30 17 1 17 18
M  V30 18 3 18 19
M  V30 19 1 19 20
M  V30 20 2 20 21
M  V30 21 1 21 22
M  V30 22 2 22 23
M  V30 23 1 23 24
M  V30 24 1 24 25
M  V30 25 1 25 26
M  V30 26 2 26 27
M  V30 27 1 27 28
M  V30 28 2 28 29
M  V30 29 1 29 30
M  V30 30 1 26 31
M  V30 31 2 31 32
M  V30 32 1 32 33
M  V30 33 1 23 34
M  V30 34 2 34 35
M  V30 35 1 17 36
M  V30 36 1 11 37
M  V30 37 2 37 38
M  V30 38 2 3 39
M  V30 39 1 39 40
M  V30 40 2 40 41
M  V30 41 1 41 1
M  V30 42 1 7 2
M  V30 43 1 38 8
M  V30 44 1 36 14
M  V30 45 1 35 20
M  V30 46 2 33 24
M  V30 47 2 30 25
M  V30 48 1 1 42
M  V30 49 1 5 43
M  V30 50 1 6 44
M  V30 51 1 7 45
M  V30 52 1 9 46
M  V30 53 1 10 47
M  V30 54 1 15 48
M  V30 55 1 16 49
M  V30 56 1 21 50
M  V30 57 1 22 51
M  V30 58 1 27 52
M  V30 59 1 28 53
M  V30 60 1 30 54
M  V30 61 1 31 55
M  V30 62 1 32 56
M  V30 63 1 33 57
M  V30 64 1 34 58
M  V30 65 1 35 59
M  V30 66 1 37 60
M  V30 67 1 38 61
M  V30 68 1 39 62
M  V30 69 1 41 63
M  V30 END BOND
M  V30 END CTAB
M  END

$$$$
