
     RDKit          3D

  0  0  0  0  0  0  0  0  0  0999 V3000
M  V30 BEGIN CTAB
M  V30 COUNTS 63 69 0 0 0
M  V30 BEGIN ATOM
M  V30 1 C 12.6393 -1.0537 -0.2733 0
M  V30 2 C 11.6520 -0.5855 -1.1505 0
M  V30 3 C 10.3068 -0.4898 -0.7114 0
M  V30 4 C 9.3143 -0.0118 -1.6060 0
M  V30 5 C 9.6785 0.3286 -2.9190 0
M  V30 6 C 11.0040 0.2256 -3.3406 0
M  V30 7 C 11.9888 -0.2224 -2.4618 0
M  V30 8 C 7.8993 0.1583 -1.2061 0
M  V30 9 C 7.5493 1.0774 -0.2034 0
M  V30 10 C 6.2093 1.2513 0.1569 0
M  V30 11 C 5.2078 0.5147 -0.4878 0
M  V30 12 C 3.8290 0.6902 -0.1156 0
M  V30 13 C 2.6726 0.8321 0.1937 0
M  V30 14 C 1.2939 0.9939 0.5591 0
M  V30 15 C 0.8208 1.7879 1.5950 0
M  V30 16 C -0.5724 1.7414 1.7253 0
M  V30 17 C -1.1749 0.9117 0.7895 0
M  V30 18 C -2.5837 0.6576 0.6830 0
M  V30 19 C -3.7654 0.4382 0.5914 0
M  V30 20 C -5.1745 0.1696 0.4792 0
M  V30 21 C -5.6395 -1.1513 0.5001 0
M  V30 22 C -7.0079 -1.4152 0.3865 0
M  V30 23 C -7.9242 -0.3590 0.2597 0
M  V30 24 C -9.3697 -0.6432 0.1104 0
M  V30 25 C -10.3388 -0.1768 1.0368 0
M  V30 26 C -11.7117 -0.4452 0.8029 0
M  V30 27 C -12.6759 0.0160 1.7088 0
M  V30 28 C -12.2722 0.7239 2.8397 0
M  V30 29 N -10.9536 0.9559 3.0649 0
M  V30 30 C -9.9901 0.5269 2.2078 0
M  V30 31 C -12.1001 -1.1786 -0.3265 0
M  V30 32 C -11.1403 -1.6525 -1.2194 0
M  V30 33 C -9.7876 -1.3893 -1.0038 0
M  V30 34 C -7.4517 0.9636 0.2269 0
M  V30 35 C -6.0831 1.2264 0.3415 0
M  V30 36 S 0.0022 0.2321 -0.2000 0
M  V30 37 C 5.5507 -0.3934 -1.4975 0
M  V30 38 C 6.8902 -0.5677 -1.8586 0
M  V30 39 C 10.0058 -0.9050 0.6018 0
M  V30 40 N 10.9900 -1.3578 1.4224 0
M  V30 41 C 12.2842 -1.4340 1.0199 0
M  V30 42 H 13.6738 -1.1293 -0.5864 0
M  V30 43 H 8.9329 0.6914 -3.6164 0
M  V30 44 H 11.2699 0.4994 -4.3534 0
M  V30 45 H 13.0126 -0.2927 -2.8092 0
M  V30 46 H 8.3141 1.6595 0.2962 0
M  V30 47 H 5.9544 1.9608 0.9352 0
M  V30 48 H 1.4592 2.3808 2.2376 0
M  V30 49 H -1.1188 2.2947 2.4773 0
M  V30 50 H -4.9445 -1.9765 0.6018 0
M  V30 51 H -7.3545 -2.4416 0.4029 0
M  V30 52 H -13.7304 -0.1734 1.5464 0
M  V30 53 H -13.0089 1.0829 3.5458 0
M  V30 54 H -8.9582 0.7290 2.4573 0
M  V30 55 H -13.1458 -1.3921 -0.5144 0
M  V30 56 H -11.4469 -2.2225 -2.0871 0
M  V30 57 H -9.0614 -1.7553 -1.7199 0
M  V30 58 H -8.1435 1.7889 0.1095 0
M  V30 59 H -5.7335 2.2517 0.3181 0
M  V30 60 H 4.7833 -0.9653 -2.0054 0
M  V30 61 H 7.1422 -1.2728 -2.6413 0
M  V30 62 H 8.9935 -0.8873 0.9799 0
M  V30 63 H 13.0386 -1.7995 1.7037 0
M  V30 END ATOM
M  V30 BEGIN BOND
M  V30 1 2 1 2
M  V30 2 1 2 3
M  V30 3 1 3 4
M  V30 4 2 4 5
M  V30 5 1 5 6
M  V30 6 2 6 7
M  V30 7 1 4 8
M  V30 8 2 8 9
M  V30 9 1 9 10
M  V30 10 2 10 11
M  V30 11 1 11 12
M  V30 12 3 12 13
M  V30 13 1 13 14
M  V30 14 2 14 15
M  V30 15 1 15 16
M  V30 16 2 16 17
M  V30 17 1 17 18
M  V30 18 3 18 19
M  V30 19 1 19 20
M  V30 20 2 20 21
M  V30 21 1 21 22
M  V30 22 2 22 23
M  V30 23 1 23 24
M  V30 24 1 24 25
M  V30 25 1 25 26
M  V30 26 2 26 27
M  V30 27 1 27 28
M  V30 28 2 28 29
M  V30 29 1 29 30
M  V30 30 1 26 31
M  V30 31 2 31 32
M  V30 32 1 32 33
M  V30 33 1 23 34
M  V30 34 2 34 35
M  V30 35 1 17 36
M  V30 36 1 11 37
M  V30 37 2 37 38
M  V30 38 2 3 39
M  V30 39 1 39 40
M  V30 40 2 40 41
M  V30 41 1 41 1
M  V30 42 1 7 2
M  V30 43 1 38 8
M  V30 44 1 36 14
M  V30 45 1 35 20
M  V30 46 2 33 24
M  V30 47 2 30 25
M  V30 48 1 1 42
M  V30 49 1 5 43
M  V30 50 1 6 44
M  V30 51 1 7 45
M  V30 52 1 9 46
M  V30 53 1 10 47
M  V30 54 1 15 48
M  V30 55 1 16 49
M  V30 56 1 21 50
M  V30 57 1 22 51
M  V30 58 1 27 52
M  V30 59 1 28 53
M  V30 60 1 30 54
M  V30 61 1 31 55
M  V30 62 1 32 56
M  V30 63 1 33 57
M  V30 64 1 34 58
M  V30 65 1 35 59
M  V30 66 1 37 60
M  V30 67 1 38 61
M  V30 68 1 39 62
M  V30 69 1 41 63
M  V30 END BOND
M  V30 END CTAB
M  END

$$$$
