
     RDKit          3D

  0  0  0  0  0  0  0  0  0  0999 V3000
M  V30 BEGIN CTAB
M  V30 COUNTS 63 69 0 0 0
M  V30 BEGIN ATOM
M  V30 1 C -12.5846 0.4469 -1.3736 0
M  V30 2 C -11.6377 1.2035 -0.6706 0
M  V30 3 C -10.2863 0.7746 -0.6239 0
M  V30 4 C -9.3346 1.5464 0.0924 0
M  V30 5 C -9.7451 2.7352 0.7185 0
M  V30 6 C -11.0760 3.1487 0.6622 0
M  V30 7 C -12.0209 2.3863 -0.0230 0
M  V30 8 C -7.9161 1.1427 0.2213 0
M  V30 9 C -6.8999 1.9710 -0.2802 0
M  V30 10 C -5.5580 1.6092 -0.1308 0
M  V30 11 C -5.2200 0.4208 0.5282 0
M  V30 12 C -3.8376 0.0545 0.6882 0
M  V30 13 C -2.6786 -0.2492 0.8222 0
M  V30 14 C -1.2979 -0.6092 0.9814 0
M  V30 15 C -0.8170 -1.6097 1.8157 0
M  V30 16 C 0.5761 -1.7385 1.7648 0
M  V30 17 C 1.1712 -0.8374 0.8918 0
M  V30 18 C 2.5802 -0.7269 0.6394 0
M  V30 19 C 3.7629 -0.6289 0.4280 0
M  V30 20 C 5.1743 -0.5044 0.1761 0
M  V30 21 C 5.6376 -0.2807 -1.1265 0
M  V30 22 C 7.0074 -0.1418 -1.3695 0
M  V30 23 C 7.9267 -0.2348 -0.3126 0
M  V30 24 C 9.3734 -0.0446 -0.5658 0
M  V30 25 C 10.3338 -1.0579 -0.3083 0
M  V30 26 C 11.7093 -0.7856 -0.5249 0
M  V30 27 C 12.6644 -1.7787 -0.2695 0
M  V30 28 C 12.2491 -3.0310 0.1813 0
M  V30 29 N 10.9284 -3.2865 0.3661 0
M  V30 30 C 9.9734 -2.3473 0.1338 0
M  V30 31 C 12.1089 0.4712 -1.0014 0
M  V30 32 C 11.1575 1.4538 -1.2728 0
M  V30 33 C 9.8021 1.1991 -1.0598 0
M  V30 34 C 7.4569 -0.4524 0.9930 0
M  V30 35 C 6.0866 -0.5905 1.2352 0
M  V30 36 S -0.0124 0.1210 0.1797 0
M  V30 37 C -6.2295 -0.4042 1.0391 0
M  V30 38 C -7.5717 -0.0425 0.8912 0
M  V30 39 C -9.9377 -0.3993 -1.3228 0
M  V30 40 N -10.8838 -1.1048 -1.9970 0
M  V30 41 C -12.1838 -0.7146 -2.0317 0
M  V30 42 H -13.6229 0.7539 -1.4178 0
M  V30 43 H -9.0315 3.3378 1.2676 0
M  V30 44 H -11.3771 4.0636 1.1564 0
M  V30 45 H -13.0498 2.7252 -0.0532 0
M  V30 46 H -7.1477 2.8944 -0.7894 0
M  V30 47 H -4.7849 2.2573 -0.5252 0
M  V30 48 H -1.4493 -2.2277 2.4391 0
M  V30 49 H 1.1277 -2.4664 2.3461 0
M  V30 50 H 4.9401 -0.2076 -1.9524 0
M  V30 51 H 7.3524 0.0361 -2.3805 0
M  V30 52 H 13.7207 -1.5900 -0.4224 0
M  V30 53 H 12.9789 -3.8053 0.3779 0
M  V30 54 H 8.9388 -2.6217 0.2848 0
M  V30 55 H 13.1565 0.6905 -1.1718 0
M  V30 56 H 11.4721 2.4207 -1.6447 0
M  V30 57 H 9.0825 1.9835 -1.2640 0
M  V30 58 H 8.1514 -0.5069 1.8223 0
M  V30 59 H 5.7385 -0.7563 2.2479 0
M  V30 60 H -5.9793 -1.3227 1.5557 0
M  V30 61 H -8.3429 -0.6815 1.3026 0
M  V30 62 H -8.9180 -0.7562 -1.3510 0
M  V30 63 H -12.9072 -1.3039 -2.5792 0
M  V30 END ATOM
M  V30 BEGIN BOND
M  V30 1 2 1 2
M  V30 2 1 2 3
M  V30 3 1 3 4
M  V30 4 2 4 5
M  V30 5 1 5 6
M  V30 6 2 6 7
M  V30 7 1 4 8
M  V30 8 2 8 9
M  V30 9 1 9 10
M  V30 10 2 10 11
M  V30 11 1 11 12
M  V30 12 3 12 13
M  V30 13 1 13 14
M  V30 14 2 14 15
M  V30 15 1 15 16
M  V30 16 2 16 17
M  V30 17 1 17 18
M  V30 18 3 18 19
M  V30 19 1 19 20
M  V30 20 2 20 21
M  V30 21 1 21 22
M  V30 22 2 22 23
M  V30 23 1 23 24
M  V30 24 1 24 25
M  V30 25 1 25 26
M  V30 26 2 26 27
M  V30 27 1 27 28
M  V30 28 2 28 29
M  V30 29 1 29 30
M  V30 30 1 26 31
M  V30 31 2 31 32
M  V30 32 1 32 33
M  V30 33 1 23 34
M  V30 34 2 34 35
M  V30 35 1 17 36
M  V30 36 1 11 37
M  V30 37 2 37 38
M  V30 38 2 3 39
M  V30 39 1 39 40
M  V30 40 2 40 41
M  V30 41 1 41 1
M  V30 42 1 7 2
M  V30 43 1 38 8
M  V30 44 1 36 14
M  V30 45 1 35 20
M  V30 46 2 33 24
M  V30 47 2 30 25
M  V30 48 1 1 42
M  V30 49 1 5 43
M  V30 50 1 6 44
M  V30 51 1 7 45
M  V30 52 1 9 46
M  V30 53 1 10 47
M  V30 54 1 15 48
M  V30 55 1 16 49
M  V30 56 1 21 50
M  V30 57 1 22 51
M  V30 58 1 27 52
M  V30 59 1 28 53
M  V30 60 1 30 54
M  V30 61 1 31 55
M  V30 62 1 32 56
M  V30 63 1 33 57
M  V30 64 1 34 58
M  V30 65 1 35 59
M  V30 66 1 37 60
M  V30 67 1 38 61
M  V30 68 1 39 62
M  V30 69 1 41 63
M  V30 END BOND
M  V30 END CTAB
M  END

$$$$
