
     RDKit          3D

  0  0  0  0  0  0  0  0  0  0999 V3000
M  V30 BEGIN CTAB
M  V30 COUNTS 63 69 0 0 0
M  V30 BEGIN ATOM
M  V30 1 C 12.7891 -0.3575 -0.5206 0
M  V30 2 C 11.7784 -0.4996 0.4396 0
M  V30 3 C 10.4181 -0.3870 0.0538 0
M  V30 4 C 9.4013 -0.5255 1.0347 0
M  V30 5 C 9.7620 -0.8056 2.3631 0
M  V30 6 C 11.1033 -0.9206 2.7291 0
M  V30 7 C 12.1085 -0.7616 1.7764 0
M  V30 8 C 7.9635 -0.3658 0.7184 0
M  V30 9 C 7.4715 0.8633 0.2494 0
M  V30 10 C 6.1103 1.0177 -0.0295 0
M  V30 11 C 5.2274 -0.0514 0.1679 0
M  V30 12 C 3.8271 0.1066 -0.1247 0
M  V30 13 C 2.6550 0.2389 -0.3734 0
M  V30 14 C 1.2601 0.3965 -0.6747 0
M  V30 15 C 0.7459 0.9109 -1.8568 0
M  V30 16 C -0.6534 0.9404 -1.8756 0
M  V30 17 C -1.2202 0.4487 -0.7076 0
M  V30 18 C -2.6280 0.3514 -0.4434 0
M  V30 19 C -3.8106 0.2700 -0.2248 0
M  V30 20 C -5.2231 0.1732 0.0325 0
M  V30 21 C -6.0072 1.3322 0.0886 0
M  V30 22 C -7.3806 1.2382 0.3328 0
M  V30 23 C -7.9835 -0.0173 0.5128 0
M  V30 24 C -9.4343 -0.1187 0.7900 0
M  V30 25 C -10.4194 0.3177 -0.1341 0
M  V30 26 C -11.7908 0.2356 0.2188 0
M  V30 27 C -12.7698 0.6690 -0.6850 0
M  V30 28 C -12.3840 1.1638 -1.9298 0
M  V30 29 N -11.0697 1.2172 -2.2653 0
M  V30 30 C -10.0917 0.8098 -1.4139 0
M  V30 31 C -12.1637 -0.2872 1.4647 0
M  V30 32 C -11.1909 -0.7347 2.3575 0
M  V30 33 C -9.8387 -0.6535 2.0242 0
M  V30 34 C -7.1907 -1.1752 0.4702 0
M  V30 35 C -5.8171 -1.0803 0.2265 0
M  V30 36 S -0.0034 -0.0247 0.3516 0
M  V30 37 C 5.7105 -1.2743 0.6499 0
M  V30 38 C 7.0720 -1.4300 0.9284 0
M  V30 39 C 10.1308 -0.1666 -1.3088 0
M  V30 40 N 11.1382 -0.0384 -2.2122 0
M  V30 41 C 12.4441 -0.1214 -1.8504 0
M  V30 42 H 13.8346 -0.4335 -0.2464 0
M  V30 43 H 8.9994 -0.9179 3.1244 0
M  V30 44 H 11.3649 -1.1279 3.7587 0
M  V30 45 H 13.1441 -0.8514 2.0829 0
M  V30 46 H 8.1426 1.7007 0.1017 0
M  V30 47 H 5.7462 1.9698 -0.3966 0
M  V30 48 H 1.3591 1.2525 -2.6808 0
M  V30 49 H -1.2299 1.3071 -2.7156 0
M  V30 50 H -5.5570 2.3073 -0.0548 0
M  V30 51 H -7.9748 2.1425 0.3822 0
M  V30 52 H -13.8226 0.6207 -0.4336 0
M  V30 53 H -13.1325 1.4988 -2.6354 0
M  V30 54 H -9.0664 0.8619 -1.7516 0
M  V30 55 H -13.2081 -0.3566 1.7446 0
M  V30 56 H -11.4858 -1.1418 3.3162 0
M  V30 57 H -9.1005 -0.9940 2.7405 0
M  V30 58 H -7.6383 -2.1505 0.6174 0
M  V30 59 H -5.2192 -1.9830 0.1886 0
M  V30 60 H 5.0353 -2.1065 0.8100 0
M  V30 61 H 7.4329 -2.3811 1.3004 0
M  V30 62 H 9.1128 -0.1088 -1.6677 0
M  V30 63 H 13.2170 -0.0124 -2.5994 0
M  V30 END ATOM
M  V30 BEGIN BOND
M  V30 1 2 1 2
M  V30 2 1 2 3
M  V30 3 1 3 4
M  V30 4 2 4 5
M  V30 5 1 5 6
M  V30 6 2 6 7
M  V30 7 1 4 8
M  V30 8 2 8 9
M  V30 9 1 9 10
M  V30 10 2 10 11
M  V30 11 1 11 12
M  V30 12 3 12 13
M  V30 13 1 13 14
M  V30 14 2 14 15
M  V30 15 1 15 16
M  V30 16 2 16 17
M  V30 17 1 17 18
M  V30 18 3 18 19
M  V30 19 1 19 20
M  V30 20 2 20 21
M  V30 21 1 21 22
M  V30 22 2 22 23
M  V30 23 1 23 24
M  V30 24 1 24 25
M  V30 25 1 25 26
M  V30 26 2 26 27
M  V30 27 1 27 28
M  V30 28 2 28 29
M  V30 29 1 29 30
M  V30 30 1 26 31
M  V30 31 2 31 32
M  V30 32 1 32 33
M  V30 33 1 23 34
M  V30 34 2 34 35
M  V30 35 1 17 36
M  V30 36 1 11 37
M  V30 37 2 37 38
M  V30 38 2 3 39
M  V30 39 1 39 40
M  V30 40 2 40 41
M  V30 41 1 41 1
M  V30 42 1 7 2
M  V30 43 1 38 8
M  V30 44 1 36 14
M  V30 45 1 35 20
M  V30 46 2 33 24
M  V30 47 2 30 25
M  V30 48 1 1 42
M  V30 49 1 5 43
M  V30 50 1 6 44
M  V30 51 1 7 45
M  V30 52 1 9 46
M  V30 53 1 10 47
M  V30 54 1 15 48
M  V30 55 1 16 49
M  V30 56 1 21 50
M  V30 57 1 22 51
M  V30 58 1 27 52
M  V30 59 1 28 53
M  V30 60 1 30 54
M  V30 61 1 31 55
M  V30 62 1 32 56
M  V30 63 1 33 57
M  V30 64 1 34 58
M  V30 65 1 35 59
M  V30 66 1 37 60
M  V30 67 1 38 61
M  V30 68 1 39 62
M  V30 69 1 41 63
M  V30 END BOND
M  V30 END CTAB
M  END

$$$$
