
     RDKit          3D

  0  0  0  0  0  0  0  0  0  0999 V3000
M  V30 BEGIN CTAB
M  V30 COUNTS 63 69 0 0 0
M  V30 BEGIN ATOM
M  V30 1 C 12.7283 0.1703 -1.3453 0
M  V30 2 C 11.7581 -0.4097 -0.5169 0
M  V30 3 C 10.3856 -0.1213 -0.7292 0
M  V30 4 C 9.4102 -0.7117 0.1162 0
M  V30 5 C 9.8220 -1.5958 1.1276 0
M  V30 6 C 11.1743 -1.8751 1.3237 0
M  V30 7 C 12.1399 -1.2815 0.5122 0
M  V30 8 C 7.9636 -0.4265 -0.0178 0
M  V30 9 C 7.4715 0.8724 0.1899 0
M  V30 10 C 6.1021 1.1327 0.0824 0
M  V30 11 C 5.2124 0.0952 -0.2224 0
M  V30 12 C 3.8030 0.3617 -0.3344 0
M  V30 13 C 2.6215 0.5804 -0.4306 0
M  V30 14 C 1.2137 0.8353 -0.5478 0
M  V30 15 C 0.6379 1.8474 -1.3042 0
M  V30 16 C -0.7608 1.8414 -1.2469 0
M  V30 17 C -1.2649 0.8258 -0.4461 0
M  V30 18 C -2.6564 0.5598 -0.2157 0
M  V30 19 C -3.8248 0.3326 -0.0263 0
M  V30 20 C -5.2200 0.0576 0.1940 0
M  V30 21 C -5.8880 0.6370 1.2802 0
M  V30 22 C -7.2450 0.3712 1.4907 0
M  V30 23 C -7.9476 -0.4683 0.6102 0
M  V30 24 C -9.3800 -0.7630 0.8378 0
M  V30 25 C -10.3799 0.2434 0.8033 0
M  V30 26 C -11.7283 -0.1044 1.0736 0
M  V30 27 C -12.7213 0.8837 1.0464 0
M  V30 28 C -12.3736 2.1982 0.7391 0
M  V30 29 N -11.0830 2.5156 0.4624 0
M  V30 30 C -10.0920 1.5858 0.4826 0
M  V30 31 C -12.0655 -1.4351 1.3577 0
M  V30 32 C -11.0806 -2.4213 1.3691 0
M  V30 33 C -9.7503 -2.0904 1.1096 0
M  V30 34 C -7.2693 -1.0573 -0.4686 0
M  V30 35 C -5.9124 -0.7915 -0.6779 0
M  V30 36 S 0.0059 -0.0707 0.1921 0
M  V30 37 C 5.6967 -1.2039 -0.4175 0
M  V30 38 C 7.0658 -1.4650 -0.3115 0
M  V30 39 C 10.0436 0.7267 -1.8024 0
M  V30 40 N 11.0126 1.2676 -2.5870 0
M  V30 41 C 12.3308 1.0153 -2.3801 0
M  V30 42 H 13.7826 -0.0327 -1.1975 0
M  V30 43 H 9.0910 -2.0607 1.7783 0
M  V30 44 H 11.4754 -2.5527 2.1123 0
M  V30 45 H 13.1851 -1.5102 0.6832 0
M  V30 46 H 8.1483 1.6813 0.4364 0
M  V30 47 H 5.7368 2.1402 0.2399 0
M  V30 48 H 1.2065 2.5637 -1.8824 0
M  V30 49 H -1.3811 2.5517 -1.7774 0
M  V30 50 H -5.3609 1.2914 1.9643 0
M  V30 51 H -7.7488 0.8179 2.3392 0
M  V30 52 H -13.7565 0.6410 1.2555 0
M  V30 53 H -13.1336 2.9675 0.7120 0
M  V30 54 H -9.0891 1.9031 0.2339 0
M  V30 55 H -13.0925 -1.7137 1.5618 0
M  V30 56 H -11.3488 -3.4479 1.5827 0
M  V30 57 H -9.0008 -2.8724 1.1356 0
M  V30 58 H -7.7938 -1.7156 -1.1505 0
M  V30 59 H -5.4037 -1.2478 -1.5188 0
M  V30 60 H 5.0162 -2.0141 -0.6512 0
M  V30 61 H 7.4279 -2.4741 -0.4658 0
M  V30 62 H 9.0126 0.9540 -2.0344 0
M  V30 63 H 13.0717 1.4655 -3.0271 0
M  V30 END ATOM
M  V30 BEGIN BOND
M  V30 1 2 1 2
M  V30 2 1 2 3
M  V30 3 1 3 4
M  V30 4 2 4 5
M  V30 5 1 5 6
M  V30 6 2 6 7
M  V30 7 1 4 8
M  V30 8 2 8 9
M  V30 9 1 9 10
M  V30 10 2 10 11
M  V30 11 1 11 12
M  V30 12 3 12 13
M  V30 13 1 13 14
M  V30 14 2 14 15
M  V30 15 1 15 16
M  V30 16 2 16 17
M  V30 17 1 17 18
M  V30 18 3 18 19
M  V30 19 1 19 20
M  V30 20 2 20 21
M  V30 21 1 21 22
M  V30 22 2 22 23
M  V30 23 1 23 24
M  V30 24 1 24 25
M  V30 25 1 25 26
M  V30 26 2 26 27
M  V30 27 1 27 28
M  V30 28 2 28 29
M  V30 29 1 29 30
M  V30 30 1 26 31
M  V30 31 2 31 32
M  V30 32 1 32 33
M  V30 33 1 23 34
M  V30 34 2 34 35
M  V30 35 1 17 36
M  V30 36 1 11 37
M  V30 37 2 37 38
M  V30 38 2 3 39
M  V30 39 1 39 40
M  V30 40 2 40 41
M  V30 41 1 41 1
M  V30 42 1 7 2
M  V30 43 1 38 8
M  V30 44 1 36 14
M  V30 45 1 35 20
M  V30 46 2 33 24
M  V30 47 2 30 25
M  V30 48 1 1 42
M  V30 49 1 5 43
M  V30 50 1 6 44
M  V30 51 1 7 45
M  V30 52 1 9 46
M  V30 53 1 10 47
M  V30 54 1 15 48
M  V30 55 1 16 49
M  V30 56 1 21 50
M  V30 57 1 22 51
M  V30 58 1 27 52
M  V30 59 1 28 53
M  V30 60 1 30 54
M  V30 61 1 31 55
M  V30 62 1 32 56
M  V30 63 1 33 57
M  V30 64 1 34 58
M  V30 65 1 35 59
M  V30 66 1 37 60
M  V30 67 1 38 61
M  V30 68 1 39 62
M  V30 69 1 41 63
M  V30 END BOND
M  V30 END CTAB
M  END

$$$$
