
     RDKit          3D

  0  0  0  0  0  0  0  0  0  0999 V3000
M  V30 BEGIN CTAB
M  V30 COUNTS 63 69 0 0 0
M  V30 BEGIN ATOM
M  V30 1 C -12.1454 1.1071 -1.6413 0
M  V30 2 C -11.4775 1.0974 -0.4097 0
M  V30 3 C -10.0606 1.0427 -0.3764 0
M  V30 4 C -9.3923 1.0367 0.8756 0
M  V30 5 C -10.1489 1.0555 2.0587 0
M  V30 6 C -11.5423 1.1050 2.0134 0
M  V30 7 C -12.2057 1.1320 0.7875 0
M  V30 8 C -7.9166 1.0243 0.9882 0
M  V30 9 C -7.2662 -0.0531 1.6102 0
M  V30 10 C -5.8732 -0.0606 1.7301 0
M  V30 11 C -5.1202 1.0133 1.2385 0
M  V30 12 C -3.6861 1.0012 1.3546 0
M  V30 13 C -2.4846 0.9873 1.4474 0
M  V30 14 C -1.0537 0.9653 1.5522 0
M  V30 15 C -0.2979 1.7090 2.4490 0
M  V30 16 C 1.0780 1.4830 2.3214 0
M  V30 17 C 1.3840 0.5656 1.3253 0
M  V30 18 C 2.7043 0.1356 0.9633 0
M  V30 19 C 3.8096 -0.2311 0.6538 0
M  V30 20 C 5.1255 -0.6754 0.2782 0
M  V30 21 C 5.7693 -1.6707 1.0233 0
M  V30 22 C 7.0416 -2.1139 0.6493 0
M  V30 23 C 7.6849 -1.5587 -0.4688 0
M  V30 24 C 9.0180 -2.0540 -0.8825 0
M  V30 25 C 10.1562 -1.2089 -0.9619 0
M  V30 26 C 11.3883 -1.7412 -1.4210 0
M  V30 27 C 12.5145 -0.9129 -1.5115 0
M  V30 28 C 12.4146 0.4247 -1.1331 0
M  V30 29 N 11.2367 0.9173 -0.6717 0
M  V30 30 C 10.1225 0.1460 -0.5736 0
M  V30 31 C 11.4792 -3.0948 -1.7737 0
M  V30 32 C 10.3637 -3.9241 -1.6687 0
M  V30 33 C 9.1443 -3.4104 -1.2269 0
M  V30 34 C 7.0296 -0.5690 -1.2197 0
M  V30 35 C 5.7579 -0.1259 -0.8440 0
M  V30 36 S -0.0340 0.0295 0.5984 0
M  V30 37 C -5.7660 2.0980 0.6321 0
M  V30 38 C -7.1588 2.1058 0.5107 0
M  V30 39 C -9.3699 0.9689 -1.6032 0
M  V30 40 N -10.0528 0.9765 -2.7783 0
M  V30 41 C -11.4075 1.0492 -2.8226 0
M  V30 42 H -13.2270 1.1537 -1.6894 0
M  V30 43 H -9.6550 1.0489 3.0229 0
M  V30 44 H -12.1112 1.1278 2.9342 0
M  V30 45 H -13.2885 1.1726 0.7749 0
M  V30 46 H -7.8371 -0.8901 1.9935 0
M  V30 47 H -5.3835 -0.9029 2.2042 0
M  V30 48 H -0.7239 2.3919 3.1724 0
M  V30 49 H 1.8217 1.9738 2.9360 0
M  V30 50 H 5.2859 -2.1073 1.8892 0
M  V30 51 H 7.5267 -2.8869 1.2324 0
M  V30 52 H 13.4636 -1.2975 -1.8662 0
M  V30 53 H 13.2785 1.0717 -1.1973 0
M  V30 54 H 9.2230 0.5969 -0.1794 0
M  V30 55 H 12.4155 -3.5134 -2.1236 0
M  V30 56 H 10.4424 -4.9699 -1.9380 0
M  V30 57 H 8.2870 -4.0708 -1.1703 0
M  V30 58 H 7.5020 -0.1454 -2.0980 0
M  V30 59 H 5.2650 0.6393 -1.4316 0
M  V30 60 H -5.1930 2.9367 0.2546 0
M  V30 61 H -7.6479 2.9531 0.0457 0
M  V30 62 H -8.2926 0.8920 -1.6392 0
M  V30 63 H -11.9141 1.0532 -3.7785 0
M  V30 END ATOM
M  V30 BEGIN BOND
M  V30 1 2 1 2
M  V30 2 1 2 3
M  V30 3 1 3 4
M  V30 4 2 4 5
M  V30 5 1 5 6
M  V30 6 2 6 7
M  V30 7 1 4 8
M  V30 8 2 8 9
M  V30 9 1 9 10
M  V30 10 2 10 11
M  V30 11 1 11 12
M  V30 12 3 12 13
M  V30 13 1 13 14
M  V30 14 2 14 15
M  V30 15 1 15 16
M  V30 16 2 16 17
M  V30 17 1 17 18
M  V30 18 3 18 19
M  V30 19 1 19 20
M  V30 20 2 20 21
M  V30 21 1 21 22
M  V30 22 2 22 23
M  V30 23 1 23 24
M  V30 24 1 24 25
M  V30 25 1 25 26
M  V30 26 2 26 27
M  V30 27 1 27 28
M  V30 28 2 28 29
M  V30 29 1 29 30
M  V30 30 1 26 31
M  V30 31 2 31 32
M  V30 32 1 32 33
M  V30 33 1 23 34
M  V30 34 2 34 35
M  V30 35 1 17 36
M  V30 36 1 11 37
M  V30 37 2 37 38
M  V30 38 2 3 39
M  V30 39 1 39 40
M  V30 40 2 40 41
M  V30 41 1 41 1
M  V30 42 1 7 2
M  V30 43 1 38 8
M  V30 44 1 36 14
M  V30 45 1 35 20
M  V30 46 2 33 24
M  V30 47 2 30 25
M  V30 48 1 1 42
M  V30 49 1 5 43
M  V30 50 1 6 44
M  V30 51 1 7 45
M  V30 52 1 9 46
M  V30 53 1 10 47
M  V30 54 1 15 48
M  V30 55 1 16 49
M  V30 56 1 21 50
M  V30 57 1 22 51
M  V30 58 1 27 52
M  V30 59 1 28 53
M  V30 60 1 30 54
M  V30 61 1 31 55
M  V30 62 1 32 56
M  V30 63 1 33 57
M  V30 64 1 34 58
M  V30 65 1 35 59
M  V30 66 1 37 60
M  V30 67 1 38 61
M  V30 68 1 39 62
M  V30 69 1 41 63
M  V30 END BOND
M  V30 END CTAB
M  END

$$$$
