
     RDKit          3D

  0  0  0  0  0  0  0  0  0  0999 V3000
M  V30 BEGIN CTAB
M  V30 COUNTS 63 69 0 0 0
M  V30 BEGIN ATOM
M  V30 1 C -11.1951 -0.5847 -4.4935 0
M  V30 2 C -10.9171 -0.4393 -3.1282 0
M  V30 3 C -9.5708 -0.3759 -2.6852 0
M  V30 4 C -9.2984 -0.2360 -1.2990 0
M  V30 5 C -10.3686 -0.1301 -0.3960 0
M  V30 6 C -11.6888 -0.1875 -0.8445 0
M  V30 7 C -11.9648 -0.3475 -2.2018 0
M  V30 8 C -7.9205 -0.2152 -0.7571 0
M  V30 9 C -7.0821 -1.3329 -0.9033 0
M  V30 10 C -5.7859 -1.3150 -0.3801 0
M  V30 11 C -5.3201 -0.1848 0.3030 0
M  V30 12 C -3.9797 -0.1599 0.8256 0
M  V30 13 C -2.8540 -0.1364 1.2561 0
M  V30 14 C -1.5100 -0.1057 1.7588 0
M  V30 15 C -1.1393 -0.2816 3.0854 0
M  V30 16 C 0.2453 -0.2027 3.2785 0
M  V30 17 C 0.9431 0.0349 2.1010 0
M  V30 18 C 2.3686 0.1542 1.9836 0
M  V30 19 C 3.5649 0.2535 1.8750 0
M  V30 20 C 4.9919 0.3698 1.7328 0
M  V30 21 C 5.8424 -0.1549 2.7145 0
M  V30 22 C 7.2296 -0.0559 2.5660 0
M  V30 23 C 7.7777 0.5616 1.4307 0
M  V30 24 C 9.2464 0.6770 1.2816 0
M  V30 25 C 9.9497 0.0992 0.1924 0
M  V30 26 C 11.3504 0.2954 0.0849 0
M  V30 27 C 12.0516 -0.2631 -0.9920 0
M  V30 28 C 11.3649 -1.0208 -1.9393 0
M  V30 29 N 10.0283 -1.2223 -1.8128 0
M  V30 30 C 9.3139 -0.6931 -0.7853 0
M  V30 31 C 12.0307 1.0390 1.0589 0
M  V30 32 C 11.3367 1.5820 2.1388 0
M  V30 33 C 9.9577 1.4024 2.2516 0
M  V30 34 C 6.9198 1.1027 0.4588 0
M  V30 35 C 5.5333 1.0014 0.6067 0
M  V30 36 S -0.1384 0.1454 0.8196 0
M  V30 37 C -6.1585 0.9249 0.4682 0
M  V30 38 C -7.4548 0.9083 -0.0555 0
M  V30 39 C -8.5495 -0.4281 -3.6559 0
M  V30 40 N -8.8580 -0.5650 -4.9722 0
M  V30 41 C -10.1420 -0.6504 -5.4052 0
M  V30 42 H -12.2161 -0.6416 -4.8524 0
M  V30 43 H -10.1793 -0.0197 0.6651 0
M  V30 44 H -12.5023 -0.1131 -0.1346 0
M  V30 45 H -12.9971 -0.3926 -2.5289 0
M  V30 46 H -7.4329 -2.2161 -1.4232 0
M  V30 47 H -5.1473 -2.1810 -0.5090 0
M  V30 48 H -1.8439 -0.4622 3.8881 0
M  V30 49 H 0.7189 -0.3186 4.2450 0
M  V30 50 H 5.4335 -0.6410 3.5915 0
M  V30 51 H 7.8770 -0.4680 3.3304 0
M  V30 52 H 13.1210 -0.1198 -1.0971 0
M  V30 53 H 11.8977 -1.4579 -2.7735 0
M  V30 54 H 8.2562 -0.9086 -0.7350 0
M  V30 55 H 13.1009 1.1940 0.9882 0
M  V30 56 H 11.8693 2.1503 2.8901 0
M  V30 57 H 9.4374 1.8467 3.0921 0
M  V30 58 H 7.3260 1.6004 -0.4136 0
M  V30 59 H 4.8847 1.4164 -0.1559 0
M  V30 60 H -5.8092 1.8028 0.9985 0
M  V30 61 H -8.0922 1.7744 0.0764 0
M  V30 62 H -7.5071 -0.3469 -3.3813 0
M  V30 63 H -10.3456 -0.7607 -6.4618 0
M  V30 END ATOM
M  V30 BEGIN BOND
M  V30 1 2 1 2
M  V30 2 1 2 3
M  V30 3 1 3 4
M  V30 4 2 4 5
M  V30 5 1 5 6
M  V30 6 2 6 7
M  V30 7 1 4 8
M  V30 8 2 8 9
M  V30 9 1 9 10
M  V30 10 2 10 11
M  V30 11 1 11 12
M  V30 12 3 12 13
M  V30 13 1 13 14
M  V30 14 2 14 15
M  V30 15 1 15 16
M  V30 16 2 16 17
M  V30 17 1 17 18
M  V30 18 3 18 19
M  V30 19 1 19 20
M  V30 20 2 20 21
M  V30 21 1 21 22
M  V30 22 2 22 23
M  V30 23 1 23 24
M  V30 24 1 24 25
M  V30 25 1 25 26
M  V30 26 2 26 27
M  V30 27 1 27 28
M  V30 28 2 28 29
M  V30 29 1 29 30
M  V30 30 1 26 31
M  V30 31 2 31 32
M  V30 32 1 32 33
M  V30 33 1 23 34
M  V30 34 2 34 35
M  V30 35 1 17 36
M  V30 36 1 11 37
M  V30 37 2 37 38
M  V30 38 2 3 39
M  V30 39 1 39 40
M  V30 40 2 40 41
M  V30 41 1 41 1
M  V30 42 1 7 2
M  V30 43 1 38 8
M  V30 44 1 36 14
M  V30 45 1 35 20
M  V30 46 2 33 24
M  V30 47 2 30 25
M  V30 48 1 1 42
M  V30 49 1 5 43
M  V30 50 1 6 44
M  V30 51 1 7 45
M  V30 52 1 9 46
M  V30 53 1 10 47
M  V30 54 1 15 48
M  V30 55 1 16 49
M  V30 56 1 21 50
M  V30 57 1 22 51
M  V30 58 1 27 52
M  V30 59 1 28 53
M  V30 60 1 30 54
M  V30 61 1 31 55
M  V30 62 1 32 56
M  V30 63 1 33 57
M  V30 64 1 34 58
M  V30 65 1 35 59
M  V30 66 1 37 60
M  V30 67 1 38 61
M  V30 68 1 39 62
M  V30 69 1 41 63
M  V30 END BOND
M  V30 END CTAB
M  END

$$$$
