
     RDKit          3D

  0  0  0  0  0  0  0  0  0  0999 V3000
M  V30 BEGIN CTAB
M  V30 COUNTS 63 69 0 0 0
M  V30 BEGIN ATOM
M  V30 1 C -12.1075 2.4719 0.1707 0
M  V30 2 C -11.5199 1.2000 0.1602 0
M  V30 3 C -10.1079 1.0760 0.1078 0
M  V30 4 C -9.5214 -0.2166 0.1034 0
M  V30 5 C -10.3530 -1.3485 0.1183 0
M  V30 6 C -11.7406 -1.2136 0.1635 0
M  V30 7 C -12.3237 0.0523 0.1914 0
M  V30 8 C -8.0555 -0.4252 0.1013 0
M  V30 9 C -7.4427 -1.1147 -0.9571 0
M  V30 10 C -6.0616 -1.3325 -0.9506 0
M  V30 11 C -5.2829 -0.8713 0.1180 0
M  V30 12 C -3.8616 -1.0966 0.1242 0
M  V30 13 C -2.6712 -1.2859 0.1286 0
M  V30 14 C -1.2536 -1.5121 0.1329 0
M  V30 15 C -0.6353 -2.7456 0.2876 0
M  V30 16 C 0.7615 -2.6641 0.2474 0
M  V30 17 C 1.2222 -1.3676 0.0617 0
M  V30 18 C 2.6013 -0.9780 -0.0227 0
M  V30 19 C 3.7594 -0.6512 -0.0941 0
M  V30 20 C 5.1420 -0.2617 -0.1802 0
M  V30 21 C 5.8930 -0.0763 0.9872 0
M  V30 22 C 7.2365 0.3017 0.9038 0
M  V30 23 C 7.8433 0.4878 -0.3492 0
M  V30 24 C 9.2598 0.9089 -0.4406 0
M  V30 25 C 10.3254 0.1136 0.0562 0
M  V30 26 C 11.6545 0.6027 -0.0213 0
M  V30 27 C 12.7120 -0.1730 0.4717 0
M  V30 28 C 12.4461 -1.4262 1.0211 0
M  V30 29 N 11.1725 -1.8935 1.0699 0
M  V30 30 C 10.1210 -1.1686 0.6055 0
M  V30 31 C 11.9083 1.8544 -0.5986 0
M  V30 32 C 10.8586 2.6194 -1.1049 0
M  V30 33 C 9.5465 2.1518 -1.0290 0
M  V30 34 C 7.0822 0.3141 -1.5161 0
M  V30 35 C 5.7386 -0.0636 -1.4316 0
M  V30 36 S -0.0856 -0.3174 -0.0542 0
M  V30 37 C -5.8911 -0.1947 1.1827 0
M  V30 38 C -7.2720 0.0232 1.1773 0
M  V30 39 C -9.3403 2.2561 0.0340 0
M  V30 40 N -9.9465 3.4724 0.0424 0
M  V30 41 C -11.2957 3.6035 0.1147 0
M  V30 42 H -13.1837 2.5894 0.2161 0
M  V30 43 H -9.9227 -2.3429 0.1123 0
M  V30 44 H -12.3673 -2.0960 0.1829 0
M  V30 45 H -13.4036 0.1344 0.2295 0
M  V30 46 H -8.0339 -1.4770 -1.7892 0
M  V30 47 H -5.6018 -1.8609 -1.7772 0
M  V30 48 H -1.1733 -3.6748 0.4242 0
M  V30 49 H 1.4108 -3.5240 0.3499 0
M  V30 50 H 5.4398 -0.2211 1.9606 0
M  V30 51 H 7.8041 0.4512 1.8142 0
M  V30 52 H 13.7342 0.1839 0.4277 0
M  V30 53 H 13.2560 -2.0336 1.4023 0
M  V30 54 H 9.1351 -1.6083 0.6579 0
M  V30 55 H 12.9196 2.2378 -0.6651 0
M  V30 56 H 11.0619 3.5830 -1.5538 0
M  V30 57 H 8.7459 2.7707 -1.4163 0
M  V30 58 H 7.5317 0.4644 -2.4900 0
M  V30 59 H 5.1655 -0.2004 -2.3408 0
M  V30 60 H -5.2988 0.1608 2.0174 0
M  V30 61 H -7.7320 0.5389 2.0114 0
M  V30 62 H -8.2629 2.2231 -0.0442 0
M  V30 63 H -11.7399 4.5899 0.1201 0
M  V30 END ATOM
M  V30 BEGIN BOND
M  V30 1 2 1 2
M  V30 2 1 2 3
M  V30 3 1 3 4
M  V30 4 2 4 5
M  V30 5 1 5 6
M  V30 6 2 6 7
M  V30 7 1 4 8
M  V30 8 2 8 9
M  V30 9 1 9 10
M  V30 10 2 10 11
M  V30 11 1 11 12
M  V30 12 3 12 13
M  V30 13 1 13 14
M  V30 14 2 14 15
M  V30 15 1 15 16
M  V30 16 2 16 17
M  V30 17 1 17 18
M  V30 18 3 18 19
M  V30 19 1 19 20
M  V30 20 2 20 21
M  V30 21 1 21 22
M  V30 22 2 22 23
M  V30 23 1 23 24
M  V30 24 1 24 25
M  V30 25 1 25 26
M  V30 26 2 26 27
M  V30 27 1 27 28
M  V30 28 2 28 29
M  V30 29 1 29 30
M  V30 30 1 26 31
M  V30 31 2 31 32
M  V30 32 1 32 33
M  V30 33 1 23 34
M  V30 34 2 34 35
M  V30 35 1 17 36
M  V30 36 1 11 37
M  V30 37 2 37 38
M  V30 38 2 3 39
M  V30 39 1 39 40
M  V30 40 2 40 41
M  V30 41 1 41 1
M  V30 42 1 7 2
M  V30 43 1 38 8
M  V30 44 1 36 14
M  V30 45 1 35 20
M  V30 46 2 33 24
M  V30 47 2 30 25
M  V30 48 1 1 42
M  V30 49 1 5 43
M  V30 50 1 6 44
M  V30 51 1 7 45
M  V30 52 1 9 46
M  V30 53 1 10 47
M  V30 54 1 15 48
M  V30 55 1 16 49
M  V30 56 1 21 50
M  V30 57 1 22 51
M  V30 58 1 27 52
M  V30 59 1 28 53
M  V30 60 1 30 54
M  V30 61 1 31 55
M  V30 62 1 32 56
M  V30 63 1 33 57
M  V30 64 1 34 58
M  V30 65 1 35 59
M  V30 66 1 37 60
M  V30 67 1 38 61
M  V30 68 1 39 62
M  V30 69 1 41 63
M  V30 END BOND
M  V30 END CTAB
M  END

$$$$
