
     RDKit          3D

  0  0  0  0  0  0  0  0  0  0999 V3000
M  V30 BEGIN CTAB
M  V30 COUNTS 63 69 0 0 0
M  V30 BEGIN ATOM
M  V30 1 C -12.6270 -0.5851 -0.9716 0
M  V30 2 C -11.6295 0.3933 -1.0768 0
M  V30 3 C -10.2857 0.0673 -0.7607 0
M  V30 4 C -9.2830 1.0670 -0.8634 0
M  V30 5 C -9.6367 2.3515 -1.3089 0
M  V30 6 C -10.9609 2.6582 -1.6230 0
M  V30 7 C -11.9553 1.6886 -1.5017 0
M  V30 8 C -7.8701 0.8175 -0.4976 0
M  V30 9 C -7.5265 0.4811 0.8220 0
M  V30 10 C -6.1892 0.2689 1.1698 0
M  V30 11 C -5.1833 0.4015 0.2047 0
M  V30 12 C -3.8066 0.1850 0.5634 0
M  V30 13 C -2.6536 0.0039 0.8650 0
M  V30 14 C -1.2810 -0.2117 1.2260 0
M  V30 15 C -0.8259 -0.5502 2.4929 0
M  V30 16 C 0.5649 -0.6966 2.5516 0
M  V30 17 C 1.1844 -0.4704 1.3298 0
M  V30 18 C 2.5971 -0.5481 1.0858 0
M  V30 19 C 3.7834 -0.6131 0.8826 0
M  V30 20 C 5.2000 -0.6899 0.6412 0
M  V30 21 C 5.7447 -0.1323 -0.5221 0
M  V30 22 C 7.1211 -0.2045 -0.7559 0
M  V30 23 C 7.9664 -0.8272 0.1772 0
M  V30 24 C 9.4216 -0.9237 -0.0780 0
M  V30 25 C 10.2511 0.2211 -0.2050 0
M  V30 26 C 11.6274 0.0545 -0.5046 0
M  V30 27 C 12.4520 1.1793 -0.6394 0
M  V30 28 C 11.9121 2.4518 -0.4606 0
M  V30 29 N 10.5984 2.5982 -0.1506 0
M  V30 30 C 9.7666 1.5317 -0.0171 0
M  V30 31 C 12.1611 -1.2327 -0.6558 0
M  V30 32 C 11.3450 -2.3528 -0.5049 0
M  V30 33 C 9.9884 -2.2015 -0.2172 0
M  V30 34 C 7.4133 -1.3980 1.3346 0
M  V30 35 C 6.0365 -1.3251 1.5676 0
M  V30 36 S 0.0245 -0.0907 0.1737 0
M  V30 37 C -5.5195 0.7504 -1.1093 0
M  V30 38 C -6.8567 0.9622 -1.4583 0
M  V30 39 C -9.9965 -1.2589 -0.3793 0
M  V30 40 N -10.9904 -2.1820 -0.2930 0
M  V30 41 C -12.2834 -1.8754 -0.5711 0
M  V30 42 H -13.6607 -0.3557 -1.2022 0
M  V30 43 H -8.8841 3.1262 -1.3960 0
M  V30 44 H -11.2185 3.6554 -1.9562 0
M  V30 45 H -12.9782 1.9490 -1.7472 0
M  V30 46 H -8.2944 0.3856 1.5799 0
M  V30 47 H -5.9395 0.0049 2.1904 0
M  V30 48 H -1.4751 -0.6877 3.3479 0
M  V30 49 H 1.0977 -0.9582 3.4568 0
M  V30 50 H 5.1059 0.3555 -1.2485 0
M  V30 51 H 7.5288 0.2228 -1.6638 0
M  V30 52 H 13.5044 1.0750 -0.8752 0
M  V30 53 H 12.5409 3.3265 -0.5596 0
M  V30 54 H 8.7360 1.7184 0.2492 0
M  V30 55 H 13.2115 -1.3727 -0.8826 0
M  V30 56 H 11.7646 -3.3442 -0.6181 0
M  V30 57 H 9.3711 -3.0866 -0.1198 0
M  V30 58 H 8.0493 -1.8924 2.0586 0
M  V30 59 H 5.6245 -1.7636 2.4687 0
M  V30 60 H -4.7488 0.8599 -1.8627 0
M  V30 61 H -7.1034 1.2321 -2.4779 0
M  V30 62 H -8.9860 -1.5747 -0.1618 0
M  V30 63 H -13.0459 -2.6385 -0.4889 0
M  V30 END ATOM
M  V30 BEGIN BOND
M  V30 1 2 1 2
M  V30 2 1 2 3
M  V30 3 1 3 4
M  V30 4 2 4 5
M  V30 5 1 5 6
M  V30 6 2 6 7
M  V30 7 1 4 8
M  V30 8 2 8 9
M  V30 9 1 9 10
M  V30 10 2 10 11
M  V30 11 1 11 12
M  V30 12 3 12 13
M  V30 13 1 13 14
M  V30 14 2 14 15
M  V30 15 1 15 16
M  V30 16 2 16 17
M  V30 17 1 17 18
M  V30 18 3 18 19
M  V30 19 1 19 20
M  V30 20 2 20 21
M  V30 21 1 21 22
M  V30 22 2 22 23
M  V30 23 1 23 24
M  V30 24 1 24 25
M  V30 25 1 25 26
M  V30 26 2 26 27
M  V30 27 1 27 28
M  V30 28 2 28 29
M  V30 29 1 29 30
M  V30 30 1 26 31
M  V30 31 2 31 32
M  V30 32 1 32 33
M  V30 33 1 23 34
M  V30 34 2 34 35
M  V30 35 1 17 36
M  V30 36 1 11 37
M  V30 37 2 37 38
M  V30 38 2 3 39
M  V30 39 1 39 40
M  V30 40 2 40 41
M  V30 41 1 41 1
M  V30 42 1 7 2
M  V30 43 1 38 8
M  V30 44 1 36 14
M  V30 45 1 35 20
M  V30 46 2 33 24
M  V30 47 2 30 25
M  V30 48 1 1 42
M  V30 49 1 5 43
M  V30 50 1 6 44
M  V30 51 1 7 45
M  V30 52 1 9 46
M  V30 53 1 10 47
M  V30 54 1 15 48
M  V30 55 1 16 49
M  V30 56 1 21 50
M  V30 57 1 22 51
M  V30 58 1 27 52
M  V30 59 1 28 53
M  V30 60 1 30 54
M  V30 61 1 31 55
M  V30 62 1 32 56
M  V30 63 1 33 57
M  V30 64 1 34 58
M  V30 65 1 35 59
M  V30 66 1 37 60
M  V30 67 1 38 61
M  V30 68 1 39 62
M  V30 69 1 41 63
M  V30 END BOND
M  V30 END CTAB
M  END

$$$$
