
     RDKit          3D

  0  0  0  0  0  0  0  0  0  0999 V3000
M  V30 BEGIN CTAB
M  V30 COUNTS 63 69 0 0 0
M  V30 BEGIN ATOM
M  V30 1 C -12.1556 -2.5070 -0.6737 0
M  V30 2 C -11.5279 -1.3859 -0.1150 0
M  V30 3 C -10.1206 -1.2415 -0.2177 0
M  V30 4 C -9.4940 -0.0996 0.3464 0
M  V30 5 C -10.2770 0.8496 1.0238 0
M  V30 6 C -11.6597 0.6935 1.1234 0
M  V30 7 C -12.2855 -0.4136 0.5523 0
M  V30 8 C -8.0381 0.1455 0.2346 0
M  V30 9 C -7.2472 0.2371 1.3910 0
M  V30 10 C -5.8760 0.4908 1.2889 0
M  V30 11 C -5.2855 0.6643 0.0309 0
M  V30 12 C -3.8744 0.9265 -0.0736 0
M  V30 13 C -2.6925 1.1464 -0.1613 0
M  V30 14 C -1.2851 1.4085 -0.2661 0
M  V30 15 C -0.7152 2.6368 -0.5732 0
M  V30 16 C 0.6836 2.5957 -0.6068 0
M  V30 17 C 1.1942 1.3356 -0.3256 0
M  V30 18 C 2.5872 0.9909 -0.2881 0
M  V30 19 C 3.7570 0.7018 -0.2569 0
M  V30 20 C 5.1536 0.3571 -0.2199 0
M  V30 21 C 5.5779 -0.7792 0.4801 0
M  V30 22 C 6.9349 -1.1145 0.5162 0
M  V30 23 C 7.8804 -0.3104 -0.1400 0
M  V30 24 C 9.3139 -0.6802 -0.1195 0
M  V30 25 C 10.3109 0.1621 0.4386 0
M  V30 26 C 11.6714 -0.2343 0.3784 0
M  V30 27 C 12.6629 0.5934 0.9215 0
M  V30 28 C 12.2979 1.7935 1.5294 0
M  V30 29 N 10.9906 2.1522 1.6010 0
M  V30 30 C 10.0016 1.3777 1.0822 0
M  V30 31 C 12.0201 -1.4556 -0.2145 0
M  V30 32 C 11.0327 -2.2878 -0.7398 0
M  V30 33 C 9.6918 -1.9060 -0.6921 0
M  V30 34 C 7.4481 0.8203 -0.8523 0
M  V30 35 C 6.0912 1.1550 -0.8875 0
M  V30 36 S -0.0717 0.2680 -0.0348 0
M  V30 37 C -6.0724 0.5870 -1.1250 0
M  V30 38 C -7.4436 0.3337 -1.0239 0
M  V30 39 C -9.3934 -2.2645 -0.8597 0
M  V30 40 N -10.0372 -3.3396 -1.3860 0
M  V30 41 C -11.3858 -3.4774 -1.3131 0
M  V30 42 H -13.2299 -2.6343 -0.6116 0
M  V30 43 H -9.8152 1.7259 1.4630 0
M  V30 44 H -12.2500 1.4383 1.6416 0
M  V30 45 H -13.3610 -0.5139 0.6387 0
M  V30 46 H -7.6919 0.1054 2.3699 0
M  V30 47 H -5.2771 0.5528 2.1897 0
M  V30 48 H -1.2888 3.5340 -0.7671 0
M  V30 49 H 1.2990 3.4578 -0.8292 0
M  V30 50 H 4.8604 -1.4057 0.9963 0
M  V30 51 H 7.2501 -1.9962 1.0608 0
M  V30 52 H 13.7086 0.3125 0.8812 0
M  V30 53 H 13.0558 2.4385 1.9537 0
M  V30 54 H 8.9801 1.7138 1.1902 0
M  V30 55 H 13.0559 -1.7701 -0.2647 0
M  V30 56 H 11.3082 -3.2318 -1.1920 0
M  V30 57 H 8.9440 -2.5628 -1.1201 0
M  V30 58 H 8.1623 1.4398 -1.3810 0
M  V30 59 H 5.7730 2.0328 -1.4371 0
M  V30 60 H -5.6269 0.7258 -2.1028 0
M  V30 61 H -8.0433 0.2863 -1.9248 0
M  V30 62 H -8.3160 -2.2266 -0.9366 0
M  V30 63 H -11.8609 -4.3477 -1.7456 0
M  V30 END ATOM
M  V30 BEGIN BOND
M  V30 1 2 1 2
M  V30 2 1 2 3
M  V30 3 1 3 4
M  V30 4 2 4 5
M  V30 5 1 5 6
M  V30 6 2 6 7
M  V30 7 1 4 8
M  V30 8 2 8 9
M  V30 9 1 9 10
M  V30 10 2 10 11
M  V30 11 1 11 12
M  V30 12 3 12 13
M  V30 13 1 13 14
M  V30 14 2 14 15
M  V30 15 1 15 16
M  V30 16 2 16 17
M  V30 17 1 17 18
M  V30 18 3 18 19
M  V30 19 1 19 20
M  V30 20 2 20 21
M  V30 21 1 21 22
M  V30 22 2 22 23
M  V30 23 1 23 24
M  V30 24 1 24 25
M  V30 25 1 25 26
M  V30 26 2 26 27
M  V30 27 1 27 28
M  V30 28 2 28 29
M  V30 29 1 29 30
M  V30 30 1 26 31
M  V30 31 2 31 32
M  V30 32 1 32 33
M  V30 33 1 23 34
M  V30 34 2 34 35
M  V30 35 1 17 36
M  V30 36 1 11 37
M  V30 37 2 37 38
M  V30 38 2 3 39
M  V30 39 1 39 40
M  V30 40 2 40 41
M  V30 41 1 41 1
M  V30 42 1 7 2
M  V30 43 1 38 8
M  V30 44 1 36 14
M  V30 45 1 35 20
M  V30 46 2 33 24
M  V30 47 2 30 25
M  V30 48 1 1 42
M  V30 49 1 5 43
M  V30 50 1 6 44
M  V30 51 1 7 45
M  V30 52 1 9 46
M  V30 53 1 10 47
M  V30 54 1 15 48
M  V30 55 1 16 49
M  V30 56 1 21 50
M  V30 57 1 22 51
M  V30 58 1 27 52
M  V30 59 1 28 53
M  V30 60 1 30 54
M  V30 61 1 31 55
M  V30 62 1 32 56
M  V30 63 1 33 57
M  V30 64 1 34 58
M  V30 65 1 35 59
M  V30 66 1 37 60
M  V30 67 1 38 61
M  V30 68 1 39 62
M  V30 69 1 41 63
M  V30 END BOND
M  V30 END CTAB
M  END

$$$$
