
     RDKit          3D

  0  0  0  0  0  0  0  0  0  0999 V3000
M  V30 BEGIN CTAB
M  V30 COUNTS 63 69 0 0 0
M  V30 BEGIN ATOM
M  V30 1 C 12.1164 -3.1704 -1.4997 0
M  V30 2 C 11.1862 -3.1564 -0.4520 0
M  V30 3 C 9.9555 -2.4695 -0.6108 0
M  V30 4 C 9.0171 -2.4651 0.4543 0
M  V30 5 C 9.3397 -3.1150 1.6569 0
M  V30 6 C 10.5558 -3.7825 1.8031 0
M  V30 7 C 11.4734 -3.8105 0.7539 0
M  V30 8 C 7.6926 -1.8127 0.3447 0
M  V30 9 C 6.7525 -2.2663 -0.5951 0
M  V30 10 C 5.4945 -1.6624 -0.6816 0
M  V30 11 C 5.1618 -0.6071 0.1768 0
M  V30 12 C 3.8666 0.0138 0.0882 0
M  V30 13 C 2.7820 0.5344 0.0148 0
M  V30 14 C 1.4905 1.1552 -0.0715 0
M  V30 15 C 1.2596 2.5142 -0.2372 0
M  V30 16 C -0.1024 2.8339 -0.2838 0
M  V30 17 C -0.9236 1.7219 -0.1543 0
M  V30 18 C -2.3589 1.7414 -0.1607 0
M  V30 19 C -3.5642 1.7586 -0.1648 0
M  V30 20 C -5.0030 1.7800 -0.1679 0
M  V30 21 C -5.7228 0.5796 -0.2111 0
M  V30 22 C -7.1208 0.6001 -0.2113 0
M  V30 23 C -7.8109 1.8222 -0.1577 0
M  V30 24 C -9.2911 1.8482 -0.1773 0
M  V30 25 C -10.0776 1.2592 0.8472 0
M  V30 26 C -11.4916 1.2788 0.7382 0
M  V30 27 C -12.2757 0.6948 1.7418 0
M  V30 28 C -11.6554 0.1127 2.8461 0
M  V30 29 N -10.3019 0.1195 2.9506 0
M  V30 30 C -9.5084 0.6725 1.9958 0
M  V30 31 C -12.1011 1.8899 -0.3662 0
M  V30 32 C -11.3221 2.4864 -1.3566 0
M  V30 33 C -9.9303 2.4681 -1.2636 0
M  V30 34 C -7.0846 3.0233 -0.1290 0
M  V30 35 C -5.6866 3.0017 -0.1295 0
M  V30 36 S 0.0216 0.3422 0.0186 0
M  V30 37 C 6.0908 -0.1602 1.1247 0
M  V30 38 C 7.3492 -0.7633 1.2118 0
M  V30 39 C 9.7263 -1.7899 -1.8246 0
M  V30 40 N 10.6543 -1.8228 -2.8170 0
M  V30 41 C 11.8262 -2.4951 -2.6842 0
M  V30 42 H 13.0602 -3.6935 -1.4016 0
M  V30 43 H 8.6367 -3.1193 2.4813 0
M  V30 44 H 10.7857 -4.2858 2.7333 0
M  V30 45 H 12.4109 -4.3372 0.8875 0
M  V30 46 H 6.9943 -3.0881 -1.2580 0
M  V30 47 H 4.7810 -2.0200 -1.4144 0
M  V30 48 H 2.0471 3.2519 -0.3207 0
M  V30 49 H -0.4726 3.8436 -0.4068 0
M  V30 50 H -5.2039 -0.3708 -0.2468 0
M  V30 51 H -7.6662 -0.3347 -0.2542 0
M  V30 52 H -13.3573 0.6936 1.6756 0
M  V30 53 H -12.2521 -0.3388 3.6274 0
M  V30 54 H -8.4388 0.6601 2.1507 0
M  V30 55 H -13.1805 1.9128 -0.4595 0
M  V30 56 H -11.7993 2.9610 -2.2043 0
M  V30 57 H -9.3459 2.9256 -2.0530 0
M  V30 58 H -7.6015 3.9747 -0.0986 0
M  V30 59 H -5.1393 3.9363 -0.1001 0
M  V30 60 H 5.8420 0.6528 1.7963 0
M  V30 61 H 8.0586 -0.4088 1.9496 0
M  V30 62 H 8.8227 -1.2203 -1.9893 0
M  V30 63 H 12.5388 -2.4982 -3.4982 0
M  V30 END ATOM
M  V30 BEGIN BOND
M  V30 1 2 1 2
M  V30 2 1 2 3
M  V30 3 1 3 4
M  V30 4 2 4 5
M  V30 5 1 5 6
M  V30 6 2 6 7
M  V30 7 1 4 8
M  V30 8 2 8 9
M  V30 9 1 9 10
M  V30 10 2 10 11
M  V30 11 1 11 12
M  V30 12 3 12 13
M  V30 13 1 13 14
M  V30 14 2 14 15
M  V30 15 1 15 16
M  V30 16 2 16 17
M  V30 17 1 17 18
M  V30 18 3 18 19
M  V30 19 1 19 20
M  V30 20 2 20 21
M  V30 21 1 21 22
M  V30 22 2 22 23
M  V30 23 1 23 24
M  V30 24 1 24 25
M  V30 25 1 25 26
M  V30 26 2 26 27
M  V30 27 1 27 28
M  V30 28 2 28 29
M  V30 29 1 29 30
M  V30 30 1 26 31
M  V30 31 2 31 32
M  V30 32 1 32 33
M  V30 33 1 23 34
M  V30 34 2 34 35
M  V30 35 1 17 36
M  V30 36 1 11 37
M  V30 37 2 37 38
M  V30 38 2 3 39
M  V30 39 1 39 40
M  V30 40 2 40 41
M  V30 41 1 41 1
M  V30 42 1 7 2
M  V30 43 1 38 8
M  V30 44 1 36 14
M  V30 45 1 35 20
M  V30 46 2 33 24
M  V30 47 2 30 25
M  V30 48 1 1 42
M  V30 49 1 5 43
M  V30 50 1 6 44
M  V30 51 1 7 45
M  V30 52 1 9 46
M  V30 53 1 10 47
M  V30 54 1 15 48
M  V30 55 1 16 49
M  V30 56 1 21 50
M  V30 57 1 22 51
M  V30 58 1 27 52
M  V30 59 1 28 53
M  V30 60 1 30 54
M  V30 61 1 31 55
M  V30 62 1 32 56
M  V30 63 1 33 57
M  V30 64 1 34 58
M  V30 65 1 35 59
M  V30 66 1 37 60
M  V30 67 1 38 61
M  V30 68 1 39 62
M  V30 69 1 41 63
M  V30 END BOND
M  V30 END CTAB
M  END

$$$$
