
     RDKit          3D

  0  0  0  0  0  0  0  0  0  0999 V3000
M  V30 BEGIN CTAB
M  V30 COUNTS 63 69 0 0 0
M  V30 BEGIN ATOM
M  V30 1 C 12.7337 -0.0634 -0.1097 0
M  V30 2 C 11.6371 0.7004 0.3110 0
M  V30 3 C 10.3218 0.1948 0.1490 0
M  V30 4 C 9.2167 0.9779 0.5733 0
M  V30 5 C 9.4493 2.2256 1.1750 0
M  V30 6 C 10.7479 2.7098 1.3341 0
M  V30 7 C 11.8376 1.9567 0.8993 0
M  V30 8 C 7.8143 0.5400 0.3900 0
M  V30 9 C 7.2923 0.3494 -0.8998 0
M  V30 10 C 5.9600 -0.0385 -1.0708 0
M  V30 11 C 5.1358 -0.2302 0.0451 0
M  V30 12 C 3.7623 -0.6214 -0.1316 0
M  V30 13 C 2.6110 -0.9460 -0.2803 0
M  V30 14 C 1.2389 -1.3285 -0.4583 0
M  V30 15 C 0.8003 -2.5208 -1.0184 0
M  V30 16 C -0.5952 -2.6161 -1.0740 0
M  V30 17 C -1.2343 -1.4977 -0.5563 0
M  V30 18 C -2.6553 -1.3041 -0.4925 0
M  V30 19 C -3.8480 -1.1374 -0.4408 0
M  V30 20 C -5.2713 -0.9341 -0.3810 0
M  V30 21 C -5.8489 -0.3436 0.7498 0
M  V30 22 C -7.2309 -0.1391 0.8051 0
M  V30 23 C -8.0460 -0.5150 -0.2751 0
M  V30 24 C -9.5118 -0.3162 -0.2123 0
M  V30 25 C -10.1027 0.9696 -0.1015 0
M  V30 26 C -11.5128 1.0818 0.0019 0
M  V30 27 C -12.1045 2.3466 0.1166 0
M  V30 28 C -11.2987 3.4842 0.1137 0
M  V30 29 N -9.9518 3.3660 -0.0077 0
M  V30 30 C -9.3418 2.1565 -0.1173 0
M  V30 31 C -12.3111 -0.0701 -0.0208 0
M  V30 32 C -11.7244 -1.3279 -0.1525 0
M  V30 33 C -10.3382 -1.4514 -0.2494 0
M  V30 34 C -7.4638 -1.1205 -1.4000 0
M  V30 35 C -6.0816 -1.3246 -1.4544 0
M  V30 36 S -0.0866 -0.3876 -0.0307 0
M  V30 37 C 5.6486 -0.0304 1.3330 0
M  V30 38 C 6.9807 0.3579 1.5049 0
M  V30 39 C 10.1689 -1.0910 -0.4086 0
M  V30 40 N 11.2571 -1.8042 -0.8012 0
M  V30 41 C 12.5192 -1.3212 -0.6710 0
M  V30 42 H 13.7465 0.3060 -0.0004 0
M  V30 43 H 8.6178 2.8354 1.5076 0
M  V30 44 H 10.9098 3.6771 1.7920 0
M  V30 45 H 12.8378 2.3529 1.0296 0
M  V30 46 H 7.9166 0.5050 -1.7713 0
M  V30 47 H 5.5717 -0.1840 -2.0717 0
M  V30 48 H 1.4644 -3.2958 -1.3784 0
M  V30 49 H -1.1174 -3.4720 -1.4817 0
M  V30 50 H -5.2318 -0.0428 1.5880 0
M  V30 51 H -7.6667 0.3115 1.6884 0
M  V30 52 H -13.1792 2.4547 0.2021 0
M  V30 53 H -11.7461 4.4653 0.1996 0
M  V30 54 H -8.2671 2.1351 -0.2296 0
M  V30 55 H -13.3896 0.0031 0.0557 0
M  V30 56 H -12.3469 -2.2131 -0.1743 0
M  V30 57 H -9.9045 -2.4404 -0.3370 0
M  V30 58 H -8.0797 -1.4261 -2.2370 0
M  V30 59 H -5.6452 -1.7855 -2.3325 0
M  V30 60 H 5.0183 -0.1719 2.2028 0
M  V30 61 H 7.3645 0.5115 2.5060 0
M  V30 62 H 9.1937 -1.5424 -0.5239 0
M  V30 63 H 13.3594 -1.9196 -0.9967 0
M  V30 END ATOM
M  V30 BEGIN BOND
M  V30 1 2 1 2
M  V30 2 1 2 3
M  V30 3 1 3 4
M  V30 4 2 4 5
M  V30 5 1 5 6
M  V30 6 2 6 7
M  V30 7 1 4 8
M  V30 8 2 8 9
M  V30 9 1 9 10
M  V30 10 2 10 11
M  V30 11 1 11 12
M  V30 12 3 12 13
M  V30 13 1 13 14
M  V30 14 2 14 15
M  V30 15 1 15 16
M  V30 16 2 16 17
M  V30 17 1 17 18
M  V30 18 3 18 19
M  V30 19 1 19 20
M  V30 20 2 20 21
M  V30 21 1 21 22
M  V30 22 2 22 23
M  V30 23 1 23 24
M  V30 24 1 24 25
M  V30 25 1 25 26
M  V30 26 2 26 27
M  V30 27 1 27 28
M  V30 28 2 28 29
M  V30 29 1 29 30
M  V30 30 1 26 31
M  V30 31 2 31 32
M  V30 32 1 32 33
M  V30 33 1 23 34
M  V30 34 2 34 35
M  V30 35 1 17 36
M  V30 36 1 11 37
M  V30 37 2 37 38
M  V30 38 2 3 39
M  V30 39 1 39 40
M  V30 40 2 40 41
M  V30 41 1 41 1
M  V30 42 1 7 2
M  V30 43 1 38 8
M  V30 44 1 36 14
M  V30 45 1 35 20
M  V30 46 2 33 24
M  V30 47 2 30 25
M  V30 48 1 1 42
M  V30 49 1 5 43
M  V30 50 1 6 44
M  V30 51 1 7 45
M  V30 52 1 9 46
M  V30 53 1 10 47
M  V30 54 1 15 48
M  V30 55 1 16 49
M  V30 56 1 21 50
M  V30 57 1 22 51
M  V30 58 1 27 52
M  V30 59 1 28 53
M  V30 60 1 30 54
M  V30 61 1 31 55
M  V30 62 1 32 56
M  V30 63 1 33 57
M  V30 64 1 34 58
M  V30 65 1 35 59
M  V30 66 1 37 60
M  V30 67 1 38 61
M  V30 68 1 39 62
M  V30 69 1 41 63
M  V30 END BOND
M  V30 END CTAB
M  END

$$$$
