
     RDKit          3D

  0  0  0  0  0  0  0  0  0  0999 V3000
M  V30 BEGIN CTAB
M  V30 COUNTS 63 69 0 0 0
M  V30 BEGIN ATOM
M  V30 1 C 12.7341 -1.1757 -0.2840 0
M  V30 2 C 11.7441 -0.3654 -0.8555 0
M  V30 3 C 10.3836 -0.5602 -0.5043 0
M  V30 4 C 9.3883 0.2707 -1.0826 0
M  V30 5 C 9.7678 1.2475 -2.0182 0
M  V30 6 C 11.1083 1.4246 -2.3611 0
M  V30 7 C 12.0941 0.6291 -1.7792 0
M  V30 8 C 7.9558 0.1664 -0.7220 0
M  V30 9 C 6.9994 -0.1289 -1.7066 0
M  V30 10 C 5.6432 -0.1974 -1.3739 0
M  V30 11 C 5.2307 0.0374 -0.0563 0
M  V30 12 C 3.8343 -0.0231 0.2852 0
M  V30 13 C 2.6652 -0.0686 0.5748 0
M  V30 14 C 1.2735 -0.1166 0.9235 0
M  V30 15 C 0.7700 -0.3695 2.1925 0
M  V30 16 C -0.6283 -0.3315 2.2417 0
M  V30 17 C -1.2052 -0.0485 1.0110 0
M  V30 18 C -2.6136 0.0723 0.7604 0
M  V30 19 C -3.7964 0.1772 0.5534 0
M  V30 20 C -5.2091 0.3065 0.3106 0
M  V30 21 C -5.7728 -0.2211 -0.8576 0
M  V30 22 C -7.1446 -0.0922 -1.0941 0
M  V30 23 C -7.9662 0.5577 -0.1593 0
M  V30 24 C -9.4145 0.7163 -0.4241 0
M  V30 25 C -10.4101 0.1742 0.4301 0
M  V30 26 C -11.7786 0.4119 0.1435 0
M  V30 27 C -12.7680 -0.1136 0.9848 0
M  V30 28 C -12.3950 -0.8777 2.0894 0
M  V30 29 N -11.0830 -1.1179 2.3410 0
M  V30 30 C -10.0953 -0.6225 1.5497 0
M  V30 31 C -12.1386 1.1631 -0.9837 0
M  V30 32 C -11.1554 1.6719 -1.8307 0
M  V30 33 C -9.8060 1.4497 -1.5562 0
M  V30 34 C -7.3934 1.0971 1.0041 0
M  V30 35 C -6.0219 0.9669 1.2401 0
M  V30 36 S 0.0018 0.1578 -0.1414 0
M  V30 37 C 6.1794 0.3434 0.9270 0
M  V30 38 C 7.5353 0.4131 0.5952 0
M  V30 39 C 10.0726 -1.6015 0.3940 0
M  V30 40 N 11.0598 -2.3706 0.9238 0
M  V30 41 C 12.3673 -2.1778 0.6130 0
M  V30 42 H 13.7799 -1.0392 -0.5329 0
M  V30 43 H 9.0217 1.8891 -2.4719 0
M  V30 44 H 11.3847 2.1876 -3.0775 0
M  V30 45 H 13.1296 0.7855 -2.0574 0
M  V30 46 H 7.3053 -0.3100 -2.7298 0
M  V30 47 H 4.9169 -0.4297 -2.1433 0
M  V30 48 H 1.3905 -0.5696 3.0564 0
M  V30 49 H -1.1966 -0.4998 3.1474 0
M  V30 50 H -5.1521 -0.7297 -1.5855 0
M  V30 51 H -7.5680 -0.5034 -2.0021 0
M  V30 52 H -13.8190 0.0601 0.7874 0
M  V30 53 H -13.1515 -1.2886 2.7446 0
M  V30 54 H -9.0722 -0.8678 1.7965 0
M  V30 55 H -13.1809 1.3504 -1.2134 0
M  V30 56 H -11.4401 2.2477 -2.7018 0
M  V30 57 H -9.0598 1.8680 -2.2211 0
M  V30 58 H -8.0090 1.6205 1.7255 0
M  V30 59 H -5.5951 1.3841 2.1442 0
M  V30 60 H 5.8705 0.5335 1.9479 0
M  V30 61 H 8.2578 0.6634 1.3623 0
M  V30 62 H 9.0510 -1.8212 0.6698 0
M  V30 63 H 13.1237 -2.8110 1.0570 0
M  V30 END ATOM
M  V30 BEGIN BOND
M  V30 1 2 1 2
M  V30 2 1 2 3
M  V30 3 1 3 4
M  V30 4 2 4 5
M  V30 5 1 5 6
M  V30 6 2 6 7
M  V30 7 1 4 8
M  V30 8 2 8 9
M  V30 9 1 9 10
M  V30 10 2 10 11
M  V30 11 1 11 12
M  V30 12 3 12 13
M  V30 13 1 13 14
M  V30 14 2 14 15
M  V30 15 1 15 16
M  V30 16 2 16 17
M  V30 17 1 17 18
M  V30 18 3 18 19
M  V30 19 1 19 20
M  V30 20 2 20 21
M  V30 21 1 21 22
M  V30 22 2 22 23
M  V30 23 1 23 24
M  V30 24 1 24 25
M  V30 25 1 25 26
M  V30 26 2 26 27
M  V30 27 1 27 28
M  V30 28 2 28 29
M  V30 29 1 29 30
M  V30 30 1 26 31
M  V30 31 2 31 32
M  V30 32 1 32 33
M  V30 33 1 23 34
M  V30 34 2 34 35
M  V30 35 1 17 36
M  V30 36 1 11 37
M  V30 37 2 37 38
M  V30 38 2 3 39
M  V30 39 1 39 40
M  V30 40 2 40 41
M  V30 41 1 41 1
M  V30 42 1 7 2
M  V30 43 1 38 8
M  V30 44 1 36 14
M  V30 45 1 35 20
M  V30 46 2 33 24
M  V30 47 2 30 25
M  V30 48 1 1 42
M  V30 49 1 5 43
M  V30 50 1 6 44
M  V30 51 1 7 45
M  V30 52 1 9 46
M  V30 53 1 10 47
M  V30 54 1 15 48
M  V30 55 1 16 49
M  V30 56 1 21 50
M  V30 57 1 22 51
M  V30 58 1 27 52
M  V30 59 1 28 53
M  V30 60 1 30 54
M  V30 61 1 31 55
M  V30 62 1 32 56
M  V30 63 1 33 57
M  V30 64 1 34 58
M  V30 65 1 35 59
M  V30 66 1 37 60
M  V30 67 1 38 61
M  V30 68 1 39 62
M  V30 69 1 41 63
M  V30 END BOND
M  V30 END CTAB
M  END

$$$$
