
     RDKit          3D

  0  0  0  0  0  0  0  0  0  0999 V3000
M  V30 BEGIN CTAB
M  V30 COUNTS 63 69 0 0 0
M  V30 BEGIN ATOM
M  V30 1 C -12.4951 1.1787 -0.5186 0
M  V30 2 C -11.6632 0.5939 0.4452 0
M  V30 3 C -10.2703 0.4835 0.2012 0
M  V30 4 C -9.4361 -0.1152 1.1812 0
M  V30 5 C -10.0025 -0.5582 2.3878 0
M  V30 6 C -11.3731 -0.4387 2.6188 0
M  V30 7 C -12.2026 0.1276 1.6520 0
M  V30 8 C -7.9825 -0.3096 0.9774 0
M  V30 9 C -7.0610 0.3010 1.8428 0
M  V30 10 C -5.6885 0.1010 1.6661 0
M  V30 11 C -5.2259 -0.7184 0.6287 0
M  V30 12 C -3.8132 -0.9248 0.4479 0
M  V30 13 C -2.6301 -1.0982 0.2962 0
M  V30 14 C -1.2211 -1.3051 0.1151 0
M  V30 15 C -0.6255 -2.4981 -0.2717 0
M  V30 16 C 0.7678 -2.4054 -0.3685 0
M  V30 17 C 1.2485 -1.1407 -0.0567 0
M  V30 18 C 2.6293 -0.7482 -0.0693 0
M  V30 19 C 3.7890 -0.4193 -0.0800 0
M  V30 20 C 5.1738 -0.0281 -0.0924 0
M  V30 21 C 5.7624 0.5063 1.0607 0
M  V30 22 C 7.1088 0.8833 1.0503 0
M  V30 23 C 7.8806 0.7200 -0.1110 0
M  V30 24 C 9.3007 1.1387 -0.1254 0
M  V30 25 C 10.3618 0.2277 -0.3686 0
M  V30 26 C 11.6956 0.7080 -0.4149 0
M  V30 27 C 12.7488 -0.1832 -0.6592 0
M  V30 28 C 12.4739 -1.5377 -0.8402 0
M  V30 29 N 11.1955 -1.9896 -0.7721 0
M  V30 30 C 10.1479 -1.1552 -0.5410 0
M  V30 31 C 11.9582 2.0690 -0.2070 0
M  V30 32 C 10.9125 2.9534 0.0533 0
M  V30 33 C 9.5959 2.4940 0.0960 0
M  V30 34 C 7.2816 0.1978 -1.2692 0
M  V30 35 C 5.9354 -0.1793 -1.2578 0
M  V30 36 S -0.0373 -0.1324 0.3392 0
M  V30 37 C -6.1415 -1.3403 -0.2294 0
M  V30 38 C -7.5142 -1.1412 -0.0531 0
M  V30 39 C -9.7648 1.0047 -1.0073 0
M  V30 40 N -10.6025 1.5688 -1.9167 0
M  V30 41 C -11.9402 1.6598 -1.7034 0
M  V30 42 H -13.5625 1.2679 -0.3550 0
M  V30 43 H -9.3804 -1.0149 3.1483 0
M  V30 44 H -11.7952 -0.7924 3.5508 0
M  V30 45 H -13.2649 0.2084 1.8505 0
M  V30 46 H -7.4059 0.9365 2.6493 0
M  V30 47 H -4.9889 0.5834 2.3383 0
M  V30 48 H -1.1773 -3.4062 -0.4780 0
M  V30 49 H 1.4007 -3.2347 -0.6570 0
M  V30 50 H 5.1811 0.6314 1.9664 0
M  V30 51 H 7.5524 1.2946 1.9489 0
M  V30 52 H 13.7745 0.1635 -0.7045 0
M  V30 53 H 13.2804 -2.2340 -1.0269 0
M  V30 54 H 9.1575 -1.5837 -0.4806 0
M  V30 55 H 12.9732 2.4475 -0.2383 0
M  V30 56 H 11.1226 4.0023 0.2181 0
M  V30 57 H 8.7989 3.2028 0.2862 0
M  V30 58 H 7.8579 0.0838 -2.1792 0
M  V30 59 H 5.4883 -0.5861 -2.1571 0
M  V30 60 H -5.7945 -1.9808 -1.0314 0
M  V30 61 H -8.2127 -1.6357 -0.7170 0
M  V30 62 H -8.7079 0.9812 -1.2324 0
M  V30 63 H -12.5737 2.1151 -2.4529 0
M  V30 END ATOM
M  V30 BEGIN BOND
M  V30 1 2 1 2
M  V30 2 1 2 3
M  V30 3 1 3 4
M  V30 4 2 4 5
M  V30 5 1 5 6
M  V30 6 2 6 7
M  V30 7 1 4 8
M  V30 8 2 8 9
M  V30 9 1 9 10
M  V30 10 2 10 11
M  V30 11 1 11 12
M  V30 12 3 12 13
M  V30 13 1 13 14
M  V30 14 2 14 15
M  V30 15 1 15 16
M  V30 16 2 16 17
M  V30 17 1 17 18
M  V30 18 3 18 19
M  V30 19 1 19 20
M  V30 20 2 20 21
M  V30 21 1 21 22
M  V30 22 2 22 23
M  V30 23 1 23 24
M  V30 24 1 24 25
M  V30 25 1 25 26
M  V30 26 2 26 27
M  V30 27 1 27 28
M  V30 28 2 28 29
M  V30 29 1 29 30
M  V30 30 1 26 31
M  V30 31 2 31 32
M  V30 32 1 32 33
M  V30 33 1 23 34
M  V30 34 2 34 35
M  V30 35 1 17 36
M  V30 36 1 11 37
M  V30 37 2 37 38
M  V30 38 2 3 39
M  V30 39 1 39 40
M  V30 40 2 40 41
M  V30 41 1 41 1
M  V30 42 1 7 2
M  V30 43 1 38 8
M  V30 44 1 36 14
M  V30 45 1 35 20
M  V30 46 2 33 24
M  V30 47 2 30 25
M  V30 48 1 1 42
M  V30 49 1 5 43
M  V30 50 1 6 44
M  V30 51 1 7 45
M  V30 52 1 9 46
M  V30 53 1 10 47
M  V30 54 1 15 48
M  V30 55 1 16 49
M  V30 56 1 21 50
M  V30 57 1 22 51
M  V30 58 1 27 52
M  V30 59 1 28 53
M  V30 60 1 30 54
M  V30 61 1 31 55
M  V30 62 1 32 56
M  V30 63 1 33 57
M  V30 64 1 34 58
M  V30 65 1 35 59
M  V30 66 1 37 60
M  V30 67 1 38 61
M  V30 68 1 39 62
M  V30 69 1 41 63
M  V30 END BOND
M  V30 END CTAB
M  END

$$$$
