
     RDKit          3D

  0  0  0  0  0  0  0  0  0  0999 V3000
M  V30 BEGIN CTAB
M  V30 COUNTS 63 69 0 0 0
M  V30 BEGIN ATOM
M  V30 1 C 12.7685 -0.5698 -0.0277 0
M  V30 2 C 11.7566 0.3695 -0.2655 0
M  V30 3 C 10.3978 0.0054 -0.0831 0
M  V30 4 C 9.3792 0.9634 -0.3309 0
M  V30 5 C 9.7401 2.2642 -0.7213 0
M  V30 6 C 11.0806 2.6109 -0.8928 0
M  V30 7 C 12.0850 1.6695 -0.6723 0
M  V30 8 C 7.9374 0.6455 -0.2044 0
M  V30 9 C 7.3492 -0.3389 -1.0160 0
M  V30 10 C 5.9840 -0.6205 -0.9061 0
M  V30 11 C 5.1929 0.0817 0.0117 0
M  V30 12 C 3.7937 -0.2313 0.1443 0
M  V30 13 C 2.6268 -0.5112 0.2601 0
M  V30 14 C 1.2433 -0.8677 0.4026 0
M  V30 15 C 0.7767 -2.0472 0.9653 0
M  V30 16 C -0.6186 -2.1426 0.9549 0
M  V30 17 C -1.2312 -1.0374 0.3824 0
M  V30 18 C -2.6493 -0.8697 0.2270 0
M  V30 19 C -3.8443 -0.7534 0.1053 0
M  V30 20 C -5.2734 -0.6377 -0.0324 0
M  V30 21 C -6.0374 -0.0964 1.0086 0
M  V30 22 C -7.4290 -0.0181 0.8910 0
M  V30 23 C -8.0686 -0.4730 -0.2727 0
M  V30 24 C -9.5456 -0.4285 -0.3825 0
M  V30 25 C -10.2782 0.7862 -0.3276 0
M  V30 26 C -11.6951 0.7485 -0.3780 0
M  V30 27 C -12.4264 1.9421 -0.3180 0
M  V30 28 C -11.7507 3.1570 -0.2241 0
M  V30 29 N -10.3935 3.1828 -0.2000 0
M  V30 30 C -9.6504 2.0461 -0.2518 0
M  V30 31 C -12.3597 -0.4798 -0.4992 0
M  V30 32 C -11.6323 -1.6666 -0.5766 0
M  V30 33 C -10.2385 -1.6433 -0.5195 0
M  V30 34 C -7.2989 -1.0236 -1.3098 0
M  V30 35 C -5.9073 -1.0999 -1.1925 0
M  V30 36 S -0.0589 0.0620 -0.1140 0
M  V30 37 C 5.7700 1.0757 0.8109 0
M  V30 38 C 7.1358 1.3622 0.6988 0
M  V30 39 C 10.1167 -1.2999 0.3705 0
M  V30 40 N 11.1253 -2.1820 0.5932 0
M  V30 41 C 12.4277 -1.8512 0.4003 0
M  V30 42 H 13.8128 -0.3145 -0.1670 0
M  V30 43 H 8.9773 3.0113 -0.9097 0
M  V30 44 H 11.3421 3.6148 -1.2016 0
M  V30 45 H 13.1193 1.9603 -0.8106 0
M  V30 46 H 7.9477 -0.8881 -1.7326 0
M  V30 47 H 5.5469 -1.3877 -1.5344 0
M  V30 48 H 1.4228 -2.8170 1.3685 0
M  V30 49 H -1.1602 -2.9911 1.3494 0
M  V30 50 H -5.5585 0.2564 1.9147 0
M  V30 51 H -8.0097 0.3909 1.7084 0
M  V30 52 H -13.5093 1.9362 -0.3485 0
M  V30 53 H -12.3068 4.0839 -0.1811 0
M  V30 54 H -8.5739 2.1394 -0.2485 0
M  V30 55 H -13.4424 -0.5197 -0.5427 0
M  V30 56 H -12.1512 -2.6115 -0.6741 0
M  V30 57 H -9.6969 -2.5810 -0.5635 0
M  V30 58 H -7.7769 -1.3932 -2.2079 0
M  V30 59 H -5.3277 -1.5263 -2.0021 0
M  V30 60 H 5.1668 1.6255 1.5231 0
M  V30 61 H 7.5717 2.1353 1.3228 0
M  V30 62 H 9.1044 -1.6234 0.5658 0
M  V30 63 H 13.2020 -2.5834 0.5874 0
M  V30 END ATOM
M  V30 BEGIN BOND
M  V30 1 2 1 2
M  V30 2 1 2 3
M  V30 3 1 3 4
M  V30 4 2 4 5
M  V30 5 1 5 6
M  V30 6 2 6 7
M  V30 7 1 4 8
M  V30 8 2 8 9
M  V30 9 1 9 10
M  V30 10 2 10 11
M  V30 11 1 11 12
M  V30 12 3 12 13
M  V30 13 1 13 14
M  V30 14 2 14 15
M  V30 15 1 15 16
M  V30 16 2 16 17
M  V30 17 1 17 18
M  V30 18 3 18 19
M  V30 19 1 19 20
M  V30 20 2 20 21
M  V30 21 1 21 22
M  V30 22 2 22 23
M  V30 23 1 23 24
M  V30 24 1 24 25
M  V30 25 1 25 26
M  V30 26 2 26 27
M  V30 27 1 27 28
M  V30 28 2 28 29
M  V30 29 1 29 30
M  V30 30 1 26 31
M  V30 31 2 31 32
M  V30 32 1 32 33
M  V30 33 1 23 34
M  V30 34 2 34 35
M  V30 35 1 17 36
M  V30 36 1 11 37
M  V30 37 2 37 38
M  V30 38 2 3 39
M  V30 39 1 39 40
M  V30 40 2 40 41
M  V30 41 1 41 1
M  V30 42 1 7 2
M  V30 43 1 38 8
M  V30 44 1 36 14
M  V30 45 1 35 20
M  V30 46 2 33 24
M  V30 47 2 30 25
M  V30 48 1 1 42
M  V30 49 1 5 43
M  V30 50 1 6 44
M  V30 51 1 7 45
M  V30 52 1 9 46
M  V30 53 1 10 47
M  V30 54 1 15 48
M  V30 55 1 16 49
M  V30 56 1 21 50
M  V30 57 1 22 51
M  V30 58 1 27 52
M  V30 59 1 28 53
M  V30 60 1 30 54
M  V30 61 1 31 55
M  V30 62 1 32 56
M  V30 63 1 33 57
M  V30 64 1 34 58
M  V30 65 1 35 59
M  V30 66 1 37 60
M  V30 67 1 38 61
M  V30 68 1 39 62
M  V30 69 1 41 63
M  V30 END BOND
M  V30 END CTAB
M  END

$$$$
