
     RDKit          3D

  0  0  0  0  0  0  0  0  0  0999 V3000
M  V30 BEGIN CTAB
M  V30 COUNTS 63 69 0 0 0
M  V30 BEGIN ATOM
M  V30 1 C -11.8132 1.7549 2.5486 0
M  V30 2 C -11.3266 1.0427 1.4445 0
M  V30 3 C -9.9330 0.8154 1.3105 0
M  V30 4 C -9.4486 0.0966 0.1864 0
M  V30 5 C -10.3630 -0.4032 -0.7556 0
M  V30 6 C -11.7318 -0.1780 -0.6099 0
M  V30 7 C -12.2137 0.5465 0.4795 0
M  V30 8 C -8.0053 -0.1353 -0.0475 0
M  V30 9 C -7.1369 0.9480 -0.2588 0
M  V30 10 C -5.7781 0.7252 -0.5012 0
M  V30 11 C -5.2778 -0.5821 -0.5450 0
M  V30 12 C -3.8795 -0.8104 -0.7966 0
M  V30 13 C -2.7082 -1.0010 -1.0077 0
M  V30 14 C -1.3132 -1.2272 -1.2596 0
M  V30 15 C -0.7919 -2.2427 -2.0498 0
M  V30 16 C 0.6060 -2.2179 -2.1177 0
M  V30 17 C 1.1644 -1.1834 -1.3797 0
M  V30 18 C 2.5686 -0.9093 -1.2622 0
M  V30 19 C 3.7479 -0.6800 -1.1647 0
M  V30 20 C 5.1563 -0.4077 -1.0495 0
M  V30 21 C 5.6156 0.5344 -0.1207 0
M  V30 22 C 6.9836 0.8004 -0.0101 0
M  V30 23 C 7.9056 0.1177 -0.8203 0
M  V30 24 C 9.3530 0.4137 -0.7218 0
M  V30 25 C 10.0974 0.1930 0.4663 0
M  V30 26 C 11.4704 0.5460 0.5035 0
M  V30 27 C 12.2119 0.3371 1.6736 0
M  V30 28 C 11.5932 -0.2308 2.7859 0
M  V30 29 N 10.2843 -0.5858 2.7315 0
M  V30 30 C 9.5320 -0.3948 1.6161 0
M  V30 31 C 12.0847 1.0929 -0.6313 0
M  V30 32 C 11.3525 1.2845 -1.8018 0
M  V30 33 C 9.9999 0.9471 -1.8487 0
M  V30 34 C 7.4388 -0.8167 -1.7586 0
M  V30 35 C 6.0704 -1.0810 -1.8695 0
M  V30 36 S -0.0579 -0.2955 -0.6422 0
M  V30 37 C -6.1422 -1.6663 -0.3485 0
M  V30 38 C -7.5011 -1.4444 -0.1049 0
M  V30 39 C -9.0813 1.2951 2.3266 0
M  V30 40 N -9.5905 1.9779 3.3854 0
M  V30 41 C -10.9203 2.2211 3.5123 0
M  V30 42 H -12.8739 1.9447 2.6674 0
M  V30 43 H -10.0113 -0.9572 -1.6180 0
M  V30 44 H -12.4227 -0.5622 -1.3492 0
M  V30 45 H -13.2807 0.7125 0.5718 0
M  V30 46 H -7.5135 1.9635 -0.2381 0
M  V30 47 H -5.1191 1.5707 -0.6579 0
M  V30 48 H -1.3992 -2.9788 -2.5606 0
M  V30 49 H 1.1870 -2.9326 -2.6864 0
M  V30 50 H 4.9167 1.0650 0.5145 0
M  V30 51 H 7.3253 1.5389 0.7047 0
M  V30 52 H 13.2606 0.6046 1.7254 0
M  V30 53 H 12.1578 -0.3988 3.6930 0
M  V30 54 H 8.5009 -0.7176 1.6342 0
M  V30 55 H 13.1334 1.3645 -0.6152 0
M  V30 56 H 11.8346 1.7022 -2.6763 0
M  V30 57 H 9.4482 1.1188 -2.7651 0
M  V30 58 H 8.1355 -1.3442 -2.3985 0
M  V30 59 H 5.7253 -1.8085 -2.5944 0
M  V30 60 H -5.7663 -2.6818 -0.3848 0
M  V30 61 H -8.1596 -2.2913 0.0450 0
M  V30 62 H -8.0150 1.1204 2.2968 0
M  V30 63 H -11.2864 2.7701 4.3696 0
M  V30 END ATOM
M  V30 BEGIN BOND
M  V30 1 2 1 2
M  V30 2 1 2 3
M  V30 3 1 3 4
M  V30 4 2 4 5
M  V30 5 1 5 6
M  V30 6 2 6 7
M  V30 7 1 4 8
M  V30 8 2 8 9
M  V30 9 1 9 10
M  V30 10 2 10 11
M  V30 11 1 11 12
M  V30 12 3 12 13
M  V30 13 1 13 14
M  V30 14 2 14 15
M  V30 15 1 15 16
M  V30 16 2 16 17
M  V30 17 1 17 18
M  V30 18 3 18 19
M  V30 19 1 19 20
M  V30 20 2 20 21
M  V30 21 1 21 22
M  V30 22 2 22 23
M  V30 23 1 23 24
M  V30 24 1 24 25
M  V30 25 1 25 26
M  V30 26 2 26 27
M  V30 27 1 27 28
M  V30 28 2 28 29
M  V30 29 1 29 30
M  V30 30 1 26 31
M  V30 31 2 31 32
M  V30 32 1 32 33
M  V30 33 1 23 34
M  V30 34 2 34 35
M  V30 35 1 17 36
M  V30 36 1 11 37
M  V30 37 2 37 38
M  V30 38 2 3 39
M  V30 39 1 39 40
M  V30 40 2 40 41
M  V30 41 1 41 1
M  V30 42 1 7 2
M  V30 43 1 38 8
M  V30 44 1 36 14
M  V30 45 1 35 20
M  V30 46 2 33 24
M  V30 47 2 30 25
M  V30 48 1 1 42
M  V30 49 1 5 43
M  V30 50 1 6 44
M  V30 51 1 7 45
M  V30 52 1 9 46
M  V30 53 1 10 47
M  V30 54 1 15 48
M  V30 55 1 16 49
M  V30 56 1 21 50
M  V30 57 1 22 51
M  V30 58 1 27 52
M  V30 59 1 28 53
M  V30 60 1 30 54
M  V30 61 1 31 55
M  V30 62 1 32 56
M  V30 63 1 33 57
M  V30 64 1 34 58
M  V30 65 1 35 59
M  V30 66 1 37 60
M  V30 67 1 38 61
M  V30 68 1 39 62
M  V30 69 1 41 63
M  V30 END BOND
M  V30 END CTAB
M  END

$$$$
