
     RDKit          3D

  0  0  0  0  0  0  0  0  0  0999 V3000
M  V30 BEGIN CTAB
M  V30 COUNTS 63 69 0 0 0
M  V30 BEGIN ATOM
M  V30 1 C 12.6114 1.1493 0.6665 0
M  V30 2 C 11.6989 0.6199 -0.2556 0
M  V30 3 C 10.3230 0.5413 0.0796 0
M  V30 4 C 9.4066 -0.0005 -0.8594 0
M  V30 5 C 9.8766 -0.4195 -2.1150 0
M  V30 6 C 11.2315 -0.3320 -2.4351 0
M  V30 7 C 12.1412 0.1782 -1.5101 0
M  V30 8 C 7.9647 -0.1593 -0.5629 0
M  V30 9 C 7.0066 0.5075 -1.3431 0
M  V30 10 C 5.6437 0.3445 -1.0770 0
M  V30 11 C 5.2267 -0.4940 -0.0357 0
M  V30 12 C 3.8239 -0.6590 0.2394 0
M  V30 13 C 2.6487 -0.7961 0.4700 0
M  V30 14 C 1.2489 -0.9582 0.7441 0
M  V30 15 C 0.7036 -1.8666 1.6418 0
M  V30 16 C -0.6932 -1.8009 1.7028 0
M  V30 17 C -1.2269 -0.8417 0.8525 0
M  V30 18 C -2.6239 -0.5472 0.7016 0
M  V30 19 C -3.7968 -0.2997 0.5757 0
M  V30 20 C -5.1971 -0.0046 0.4260 0
M  V30 21 C -6.1176 -0.4723 1.3722 0
M  V30 22 C -7.4784 -0.1857 1.2276 0
M  V30 23 C -7.9316 0.5628 0.1287 0
M  V30 24 C -9.3691 0.8876 -0.0151 0
M  V30 25 C -10.3657 -0.1118 -0.1669 0
M  V30 26 C -11.7293 0.2705 -0.2466 0
M  V30 27 C -12.7203 -0.7096 -0.3895 0
M  V30 28 C -12.3523 -2.0517 -0.4675 0
M  V30 29 N -11.0424 -2.4043 -0.4131 0
M  V30 30 C -10.0536 -1.4828 -0.2703 0
M  V30 31 C -12.0816 1.6260 -0.1914 0
M  V30 32 C -11.0950 2.6029 -0.0661 0
M  V30 33 C -9.7511 2.2389 0.0198 0
M  V30 34 C -7.0029 1.0412 -0.8093 0
M  V30 35 C -5.6420 0.7549 -0.6632 0
M  V30 36 S 0.0162 -0.0711 0.0233 0
M  V30 37 C 6.1779 -1.1729 0.7360 0
M  V30 38 C 7.5409 -1.0102 0.4711 0
M  V30 39 C 9.9163 1.0366 1.3353 0
M  V30 40 N 10.8305 1.5468 2.2022 0
M  V30 41 C 12.1527 1.6071 1.9006 0
M  V30 42 H 13.6676 1.2134 0.4330 0
M  V30 43 H 9.1909 -0.8326 -2.8451 0
M  V30 44 H 11.5792 -0.6670 -3.4039 0
M  V30 45 H 13.1896 0.2349 -1.7781 0
M  V30 46 H 7.3159 1.1588 -2.1513 0
M  V30 47 H 4.9160 0.8714 -1.6826 0
M  V30 48 H 1.2932 -2.5547 2.2337 0
M  V30 49 H -1.2912 -2.4330 2.3467 0
M  V30 50 H -5.7831 -1.0548 2.2224 0
M  V30 51 H -8.1791 -0.5442 1.9718 0
M  V30 52 H -13.7681 -0.4399 -0.4454 0
M  V30 53 H -13.1098 -2.8158 -0.5802 0
M  V30 54 H -9.0304 -1.8306 -0.2522 0
M  V30 55 H -13.1198 1.9303 -0.2527 0
M  V30 56 H -11.3734 3.6481 -0.0289 0
M  V30 57 H -9.0038 3.0153 0.1324 0
M  V30 58 H -7.3341 1.6299 -1.6560 0
M  V30 59 H -4.9377 1.1261 -1.3980 0
M  V30 60 H 5.8663 -1.8289 1.5401 0
M  V30 61 H 8.2665 -1.5471 1.0700 0
M  V30 62 H 8.8770 1.0360 1.6314 0
M  V30 63 H 12.8491 2.0201 2.6182 0
M  V30 END ATOM
M  V30 BEGIN BOND
M  V30 1 2 1 2
M  V30 2 1 2 3
M  V30 3 1 3 4
M  V30 4 2 4 5
M  V30 5 1 5 6
M  V30 6 2 6 7
M  V30 7 1 4 8
M  V30 8 2 8 9
M  V30 9 1 9 10
M  V30 10 2 10 11
M  V30 11 1 11 12
M  V30 12 3 12 13
M  V30 13 1 13 14
M  V30 14 2 14 15
M  V30 15 1 15 16
M  V30 16 2 16 17
M  V30 17 1 17 18
M  V30 18 3 18 19
M  V30 19 1 19 20
M  V30 20 2 20 21
M  V30 21 1 21 22
M  V30 22 2 22 23
M  V30 23 1 23 24
M  V30 24 1 24 25
M  V30 25 1 25 26
M  V30 26 2 26 27
M  V30 27 1 27 28
M  V30 28 2 28 29
M  V30 29 1 29 30
M  V30 30 1 26 31
M  V30 31 2 31 32
M  V30 32 1 32 33
M  V30 33 1 23 34
M  V30 34 2 34 35
M  V30 35 1 17 36
M  V30 36 1 11 37
M  V30 37 2 37 38
M  V30 38 2 3 39
M  V30 39 1 39 40
M  V30 40 2 40 41
M  V30 41 1 41 1
M  V30 42 1 7 2
M  V30 43 1 38 8
M  V30 44 1 36 14
M  V30 45 1 35 20
M  V30 46 2 33 24
M  V30 47 2 30 25
M  V30 48 1 1 42
M  V30 49 1 5 43
M  V30 50 1 6 44
M  V30 51 1 7 45
M  V30 52 1 9 46
M  V30 53 1 10 47
M  V30 54 1 15 48
M  V30 55 1 16 49
M  V30 56 1 21 50
M  V30 57 1 22 51
M  V30 58 1 27 52
M  V30 59 1 28 53
M  V30 60 1 30 54
M  V30 61 1 31 55
M  V30 62 1 32 56
M  V30 63 1 33 57
M  V30 64 1 34 58
M  V30 65 1 35 59
M  V30 66 1 37 60
M  V30 67 1 38 61
M  V30 68 1 39 62
M  V30 69 1 41 63
M  V30 END BOND
M  V30 END CTAB
M  END

$$$$
