
     RDKit          3D

  0  0  0  0  0  0  0  0  0  0999 V3000
M  V30 BEGIN CTAB
M  V30 COUNTS 63 69 0 0 0
M  V30 BEGIN ATOM
M  V30 1 C -12.1647 -0.0091 -2.1053 0
M  V30 2 C -11.5412 -0.0785 -0.8524 0
M  V30 3 C -10.1254 -0.0934 -0.7693 0
M  V30 4 C -9.5025 -0.1563 0.5047 0
M  V30 5 C -10.3018 -0.2368 1.6570 0
M  V30 6 C -11.6934 -0.2283 1.5620 0
M  V30 7 C -12.3127 -0.1425 0.3160 0
M  V30 8 C -8.0320 -0.1180 0.6740 0
M  V30 9 C -7.3630 -1.1905 1.2853 0
M  V30 10 C -5.9771 -1.1454 1.4678 0
M  V30 11 C -5.2498 -0.0241 1.0493 0
M  V30 12 C -3.8239 0.0234 1.2374 0
M  V30 13 C -2.6295 0.0669 1.3935 0
M  V30 14 C -1.2069 0.1228 1.5774 0
M  V30 15 C -0.5598 0.4663 2.7568 0
M  V30 16 C 0.8349 0.4495 2.6382 0
M  V30 17 C 1.2651 0.0934 1.3671 0
M  V30 18 C 2.6345 0.0025 0.9462 0
M  V30 19 C 3.7842 -0.0711 0.5916 0
M  V30 20 C 5.1566 -0.1560 0.1675 0
M  V30 21 C 5.8088 0.9796 -0.3283 0
M  V30 22 C 7.1419 0.8978 -0.7414 0
M  V30 23 C 7.8379 -0.3191 -0.6519 0
M  V30 24 C 9.2428 -0.4140 -1.1095 0
M  V30 25 C 10.2917 0.3330 -0.5119 0
M  V30 26 C 11.6059 0.2311 -1.0360 0
M  V30 27 C 12.6462 0.9693 -0.4563 0
M  V30 28 C 12.3794 1.7863 0.6412 0
M  V30 29 N 11.1221 1.8587 1.1484 0
M  V30 30 C 10.0870 1.1611 0.6106 0
M  V30 31 C 11.8628 -0.6138 -2.1244 0
M  V30 32 C 10.8316 -1.3617 -2.6908 0
M  V30 33 C 9.5337 -1.2650 -2.1883 0
M  V30 34 C 7.1755 -1.4578 -0.1668 0
M  V30 35 C 5.8418 -1.3752 0.2452 0
M  V30 36 S -0.0671 -0.2007 0.3846 0
M  V30 37 C -5.9141 1.0540 0.4513 0
M  V30 38 C -7.2997 1.0099 0.2688 0
M  V30 39 C -9.3896 -0.0719 -1.9717 0
M  V30 40 N -10.0300 -0.0092 -3.1688 0
M  V30 41 C -11.3839 0.0289 -3.2594 0
M  V30 42 H -13.2446 0.0100 -2.1912 0
M  V30 43 H -9.8434 -0.2882 2.6376 0
M  V30 44 H -12.2952 -0.2821 2.4603 0
M  V30 45 H -13.3951 -0.1337 0.2651 0
M  V30 46 H -7.9141 -2.0630 1.6144 0
M  V30 47 H -5.4737 -1.9830 1.9355 0
M  V30 48 H -1.0759 0.7244 3.6725 0
M  V30 49 H 1.5043 0.6928 3.4532 0
M  V30 50 H 5.2863 1.9262 -0.3983 0
M  V30 51 H 7.6322 1.7807 -1.1328 0
M  V30 52 H 13.6564 0.9107 -0.8444 0
M  V30 53 H 13.1763 2.3583 1.0974 0
M  V30 54 H 9.1152 1.2502 1.0752 0
M  V30 55 H 12.8630 -0.7013 -2.5323 0
M  V30 56 H 11.0378 -2.0161 -3.5280 0
M  V30 57 H 8.7460 -1.8443 -2.6549 0
M  V30 58 H 7.6944 -2.4066 -0.1019 0
M  V30 59 H 5.3448 -2.2608 0.6228 0
M  V30 60 H -5.3622 1.9291 0.1295 0
M  V30 61 H -7.8029 1.8549 -0.1853 0
M  V30 62 H -8.3099 -0.1183 -1.9722 0
M  V30 63 H -11.8559 0.0801 -4.2314 0
M  V30 END ATOM
M  V30 BEGIN BOND
M  V30 1 2 1 2
M  V30 2 1 2 3
M  V30 3 1 3 4
M  V30 4 2 4 5
M  V30 5 1 5 6
M  V30 6 2 6 7
M  V30 7 1 4 8
M  V30 8 2 8 9
M  V30 9 1 9 10
M  V30 10 2 10 11
M  V30 11 1 11 12
M  V30 12 3 12 13
M  V30 13 1 13 14
M  V30 14 2 14 15
M  V30 15 1 15 16
M  V30 16 2 16 17
M  V30 17 1 17 18
M  V30 18 3 18 19
M  V30 19 1 19 20
M  V30 20 2 20 21
M  V30 21 1 21 22
M  V30 22 2 22 23
M  V30 23 1 23 24
M  V30 24 1 24 25
M  V30 25 1 25 26
M  V30 26 2 26 27
M  V30 27 1 27 28
M  V30 28 2 28 29
M  V30 29 1 29 30
M  V30 30 1 26 31
M  V30 31 2 31 32
M  V30 32 1 32 33
M  V30 33 1 23 34
M  V30 34 2 34 35
M  V30 35 1 17 36
M  V30 36 1 11 37
M  V30 37 2 37 38
M  V30 38 2 3 39
M  V30 39 1 39 40
M  V30 40 2 40 41
M  V30 41 1 41 1
M  V30 42 1 7 2
M  V30 43 1 38 8
M  V30 44 1 36 14
M  V30 45 1 35 20
M  V30 46 2 33 24
M  V30 47 2 30 25
M  V30 48 1 1 42
M  V30 49 1 5 43
M  V30 50 1 6 44
M  V30 51 1 7 45
M  V30 52 1 9 46
M  V30 53 1 10 47
M  V30 54 1 15 48
M  V30 55 1 16 49
M  V30 56 1 21 50
M  V30 57 1 22 51
M  V30 58 1 27 52
M  V30 59 1 28 53
M  V30 60 1 30 54
M  V30 61 1 31 55
M  V30 62 1 32 56
M  V30 63 1 33 57
M  V30 64 1 34 58
M  V30 65 1 35 59
M  V30 66 1 37 60
M  V30 67 1 38 61
M  V30 68 1 39 62
M  V30 69 1 41 63
M  V30 END BOND
M  V30 END CTAB
M  END

$$$$
