
     RDKit          3D

  0  0  0  0  0  0  0  0  0  0999 V3000
M  V30 BEGIN CTAB
M  V30 COUNTS 63 69 0 0 0
M  V30 BEGIN ATOM
M  V30 1 C -12.7660 1.0064 0.1175 0
M  V30 2 C -11.7596 0.1277 0.5397 0
M  V30 3 C -10.3968 0.4816 0.3682 0
M  V30 4 C -9.3842 -0.4173 0.7942 0
M  V30 5 C -9.7522 -1.6268 1.4066 0
M  V30 6 C -11.0960 -1.9610 1.5751 0
M  V30 7 C -12.0966 -1.0938 1.1391 0
M  V30 8 C -7.9423 -0.1400 0.6032 0
M  V30 9 C -7.4077 -0.0141 -0.6894 0
M  V30 10 C -6.0415 0.2243 -0.8671 0
M  V30 11 C -5.1966 0.3291 0.2449 0
M  V30 12 C -3.7902 0.5724 0.0615 0
M  V30 13 C -2.6121 0.7757 -0.0921 0
M  V30 14 C -1.2089 1.0173 -0.2752 0
M  V30 15 C -0.6555 2.1520 -0.8530 0
M  V30 16 C 0.7430 2.1125 -0.9007 0
M  V30 17 C 1.2698 0.9473 -0.3598 0
M  V30 18 C 2.6664 0.6271 -0.2719 0
M  V30 19 C 3.8391 0.3582 -0.1983 0
M  V30 20 C 5.2392 0.0377 -0.1109 0
M  V30 21 C 6.0197 0.5767 0.9195 0
M  V30 22 C 7.3803 0.2662 1.0043 0
M  V30 23 C 7.9740 -0.5789 0.0533 0
M  V30 24 C 9.4098 -0.9246 0.1583 0
M  V30 25 C 10.3472 -0.6062 -0.8589 0
M  V30 26 C 11.6978 -1.0147 -0.7143 0
M  V30 27 C 12.6286 -0.7105 -1.7164 0
M  V30 28 C 12.2183 0.0052 -2.8400 0
M  V30 29 N 10.9280 0.4107 -2.9571 0
M  V30 30 C 9.9960 0.1308 -2.0083 0
M  V30 31 C 12.1001 -1.7122 0.4330 0
M  V30 32 C 11.1782 -2.0004 1.4382 0
M  V30 33 C 9.8458 -1.6097 1.3044 0
M  V30 34 C 7.1839 -1.1280 -0.9698 0
M  V30 35 C 5.8237 -0.8168 -1.0540 0
M  V30 36 S 0.0186 -0.0382 0.1788 0
M  V30 37 C -5.7226 0.1910 1.5354 0
M  V30 38 C -7.0888 -0.0471 1.7141 0
M  V30 39 C -10.1038 1.7381 -0.2002 0
M  V30 40 N -11.1074 2.5656 -0.5941 0
M  V30 41 C -12.4149 2.2279 -0.4549 0
M  V30 42 H -13.8132 0.7534 0.2339 0
M  V30 43 H -8.9925 -2.3236 1.7404 0
M  V30 44 H -11.3630 -2.9007 2.0415 0
M  V30 45 H -13.1341 -1.3743 1.2771 0
M  V30 46 H -8.0490 -0.1034 -1.5578 0
M  V30 47 H -5.6439 0.3233 -1.8700 0
M  V30 48 H -1.2404 2.9817 -1.2285 0
M  V30 49 H 1.3468 2.9087 -1.3167 0
M  V30 50 H 5.5765 1.2354 1.6567 0
M  V30 51 H 7.9730 0.6892 1.8062 0
M  V30 52 H 13.6638 -1.0184 -1.6289 0
M  V30 53 H 12.9300 0.2470 -3.6180 0
M  V30 54 H 8.9908 0.4997 -2.1555 0
M  V30 55 H 13.1296 -2.0278 0.5555 0
M  V30 56 H 11.4965 -2.5351 2.3238 0
M  V30 57 H 9.1447 -1.8585 2.0922 0
M  V30 58 H 7.6220 -1.7979 -1.6996 0
M  V30 59 H 5.2278 -1.2440 -1.8516 0
M  V30 60 H -5.0770 0.2659 2.4023 0
M  V30 61 H -7.4830 -0.1528 2.7174 0
M  V30 62 H -9.0849 2.0769 -0.3229 0
M  V30 63 H -13.1845 2.9142 -0.7821 0
M  V30 END ATOM
M  V30 BEGIN BOND
M  V30 1 2 1 2
M  V30 2 1 2 3
M  V30 3 1 3 4
M  V30 4 2 4 5
M  V30 5 1 5 6
M  V30 6 2 6 7
M  V30 7 1 4 8
M  V30 8 2 8 9
M  V30 9 1 9 10
M  V30 10 2 10 11
M  V30 11 1 11 12
M  V30 12 3 12 13
M  V30 13 1 13 14
M  V30 14 2 14 15
M  V30 15 1 15 16
M  V30 16 2 16 17
M  V30 17 1 17 18
M  V30 18 3 18 19
M  V30 19 1 19 20
M  V30 20 2 20 21
M  V30 21 1 21 22
M  V30 22 2 22 23
M  V30 23 1 23 24
M  V30 24 1 24 25
M  V30 25 1 25 26
M  V30 26 2 26 27
M  V30 27 1 27 28
M  V30 28 2 28 29
M  V30 29 1 29 30
M  V30 30 1 26 31
M  V30 31 2 31 32
M  V30 32 1 32 33
M  V30 33 1 23 34
M  V30 34 2 34 35
M  V30 35 1 17 36
M  V30 36 1 11 37
M  V30 37 2 37 38
M  V30 38 2 3 39
M  V30 39 1 39 40
M  V30 40 2 40 41
M  V30 41 1 41 1
M  V30 42 1 7 2
M  V30 43 1 38 8
M  V30 44 1 36 14
M  V30 45 1 35 20
M  V30 46 2 33 24
M  V30 47 2 30 25
M  V30 48 1 1 42
M  V30 49 1 5 43
M  V30 50 1 6 44
M  V30 51 1 7 45
M  V30 52 1 9 46
M  V30 53 1 10 47
M  V30 54 1 15 48
M  V30 55 1 16 49
M  V30 56 1 21 50
M  V30 57 1 22 51
M  V30 58 1 27 52
M  V30 59 1 28 53
M  V30 60 1 30 54
M  V30 61 1 31 55
M  V30 62 1 32 56
M  V30 63 1 33 57
M  V30 64 1 34 58
M  V30 65 1 35 59
M  V30 66 1 37 60
M  V30 67 1 38 61
M  V30 68 1 39 62
M  V30 69 1 41 63
M  V30 END BOND
M  V30 END CTAB
M  END

$$$$
