
     RDKit          3D

  0  0  0  0  0  0  0  0  0  0999 V3000
M  V30 BEGIN CTAB
M  V30 COUNTS 63 69 0 0 0
M  V30 BEGIN ATOM
M  V30 1 C -12.7025 0.1801 0.8681 0
M  V30 2 C -11.6288 -0.6947 1.0805 0
M  V30 3 C -10.3244 -0.3242 0.6642 0
M  V30 4 C -9.2419 -1.2145 0.8886 0
M  V30 5 C -9.4895 -2.4595 1.4900 0
M  V30 6 C -10.7778 -2.8150 1.8897 0
M  V30 7 C -11.8426 -1.9368 1.6936 0
M  V30 8 C -7.8462 -0.8764 0.5282 0
M  V30 9 C -7.1961 0.2069 1.1419 0
M  V30 10 C -5.8710 0.5106 0.8155 0
M  V30 11 C -5.1812 -0.2714 -0.1192 0
M  V30 12 C -3.8171 0.0411 -0.4543 0
M  V30 13 C -2.6744 0.3030 -0.7348 0
M  V30 14 C -1.3135 0.6149 -1.0685 0
M  V30 15 C -0.9081 1.5921 -1.9676 0
M  V30 16 C 0.4837 1.6738 -2.0929 0
M  V30 17 C 1.1534 0.7598 -1.2905 0
M  V30 18 C 2.5788 0.6115 -1.2077 0
M  V30 19 C 3.7757 0.4870 -1.1378 0
M  V30 20 C 5.2046 0.3385 -1.0539 0
M  V30 21 C 6.0320 1.4667 -1.1131 0
M  V30 22 C 7.4203 1.3229 -1.0315 0
M  V30 23 C 7.9925 0.0492 -0.8798 0
M  V30 24 C 9.4633 -0.1085 -0.8152 0
M  V30 25 C 10.2467 0.4631 0.2213 0
M  V30 26 C 11.6568 0.3132 0.1922 0
M  V30 27 C 12.4386 0.8788 1.2081 0
M  V30 28 C 11.8182 1.5720 2.2462 0
M  V30 29 N 10.4661 1.6902 2.2755 0
M  V30 30 C 9.6754 1.1588 1.3063 0
M  V30 31 C 12.2638 -0.4075 -0.8455 0
M  V30 32 C 11.4854 -0.9853 -1.8473 0
M  V30 33 C 10.0981 -0.8397 -1.8328 0
M  V30 34 C 7.1593 -1.0798 -0.8348 0
M  V30 35 C 5.7710 -0.9350 -0.9167 0
M  V30 36 S 0.0372 -0.1516 -0.4245 0
M  V30 37 C -5.8205 -1.3611 -0.7237 0
M  V30 38 C -7.1458 -1.6654 -0.3981 0
M  V30 39 C -10.1626 0.9157 0.0131 0
M  V30 40 N -11.2290 1.7361 -0.1788 0
M  V30 41 C -12.4779 1.4016 0.2353 0
M  V30 42 H -13.7059 -0.0805 1.1834 0
M  V30 43 H -8.6756 -3.1527 1.6663 0
M  V30 44 H -10.9505 -3.7748 2.3594 0
M  V30 45 H -12.8348 -2.2316 2.0143 0
M  V30 46 H -7.7157 0.8134 1.8738 0
M  V30 47 H -5.3840 1.3521 1.2936 0
M  V30 48 H -1.5930 2.2260 -2.5158 0
M  V30 49 H 0.9819 2.3773 -2.7475 0
M  V30 50 H 5.6046 2.4559 -1.2252 0
M  V30 51 H 8.0501 2.2023 -1.0882 0
M  V30 52 H 13.5177 0.7812 1.2022 0
M  V30 53 H 12.4129 2.0104 3.0364 0
M  V30 54 H 8.6049 1.2737 1.4007 0
M  V30 55 H 13.3400 -0.5304 -0.8774 0
M  V30 56 H 11.9601 -1.5448 -2.6431 0
M  V30 57 H 9.5156 -1.2855 -2.6303 0
M  V30 58 H 7.5850 -2.0703 -0.7292 0
M  V30 59 H 5.1401 -1.8148 -0.8742 0
M  V30 60 H -5.2946 -1.9752 -1.4449 0
M  V30 61 H -7.6288 -2.5111 -0.8723 0
M  V30 62 H -9.1992 1.2354 -0.3581 0
M  V30 63 H -13.3007 2.0830 0.0648 0
M  V30 END ATOM
M  V30 BEGIN BOND
M  V30 1 2 1 2
M  V30 2 1 2 3
M  V30 3 1 3 4
M  V30 4 2 4 5
M  V30 5 1 5 6
M  V30 6 2 6 7
M  V30 7 1 4 8
M  V30 8 2 8 9
M  V30 9 1 9 10
M  V30 10 2 10 11
M  V30 11 1 11 12
M  V30 12 3 12 13
M  V30 13 1 13 14
M  V30 14 2 14 15
M  V30 15 1 15 16
M  V30 16 2 16 17
M  V30 17 1 17 18
M  V30 18 3 18 19
M  V30 19 1 19 20
M  V30 20 2 20 21
M  V30 21 1 21 22
M  V30 22 2 22 23
M  V30 23 1 23 24
M  V30 24 1 24 25
M  V30 25 1 25 26
M  V30 26 2 26 27
M  V30 27 1 27 28
M  V30 28 2 28 29
M  V30 29 1 29 30
M  V30 30 1 26 31
M  V30 31 2 31 32
M  V30 32 1 32 33
M  V30 33 1 23 34
M  V30 34 2 34 35
M  V30 35 1 17 36
M  V30 36 1 11 37
M  V30 37 2 37 38
M  V30 38 2 3 39
M  V30 39 1 39 40
M  V30 40 2 40 41
M  V30 41 1 41 1
M  V30 42 1 7 2
M  V30 43 1 38 8
M  V30 44 1 36 14
M  V30 45 1 35 20
M  V30 46 2 33 24
M  V30 47 2 30 25
M  V30 48 1 1 42
M  V30 49 1 5 43
M  V30 50 1 6 44
M  V30 51 1 7 45
M  V30 52 1 9 46
M  V30 53 1 10 47
M  V30 54 1 15 48
M  V30 55 1 16 49
M  V30 56 1 21 50
M  V30 57 1 22 51
M  V30 58 1 27 52
M  V30 59 1 28 53
M  V30 60 1 30 54
M  V30 61 1 31 55
M  V30 62 1 32 56
M  V30 63 1 33 57
M  V30 64 1 34 58
M  V30 65 1 35 59
M  V30 66 1 37 60
M  V30 67 1 38 61
M  V30 68 1 39 62
M  V30 69 1 41 63
M  V30 END BOND
M  V30 END CTAB
M  END

$$$$
