
     RDKit          3D

  0  0  0  0  0  0  0  0  0  0999 V3000
M  V30 BEGIN CTAB
M  V30 COUNTS 63 69 0 0 0
M  V30 BEGIN ATOM
M  V30 1 C -12.2825 3.6090 0.3880 0
M  V30 2 C -11.5098 2.4453 0.4961 0
M  V30 3 C -10.0964 2.5266 0.4084 0
M  V30 4 C -9.3221 1.3416 0.5134 0
M  V30 5 C -9.9697 0.1150 0.7345 0
M  V30 6 C -11.3602 0.0486 0.8251 0
M  V30 7 C -12.1292 1.2046 0.7002 0
M  V30 8 C -7.8474 1.3407 0.3808 0
M  V30 9 C -7.2419 1.7334 -0.8241 0
M  V30 10 C -5.8500 1.7111 -0.9535 0
M  V30 11 C -5.0521 1.2866 0.1163 0
M  V30 12 C -3.6195 1.2630 -0.0176 0
M  V30 13 C -2.4195 1.2432 -0.1299 0
M  V30 14 C -0.9905 1.2194 -0.2639 0
M  V30 15 C -0.1843 2.3261 -0.4941 0
M  V30 16 C 1.1747 2.0021 -0.5805 0
M  V30 17 C 1.4184 0.6450 -0.4170 0
M  V30 18 C 2.7101 0.0200 -0.4559 0
M  V30 19 C 3.7947 -0.5049 -0.4887 0
M  V30 20 C 5.0895 -1.1316 -0.5278 0
M  V30 21 C 5.6322 -1.5457 -1.7507 0
M  V30 22 C 6.8901 -2.1549 -1.7892 0
M  V30 23 C 7.6202 -2.3467 -0.6055 0
M  V30 24 C 8.9419 -3.0128 -0.6461 0
M  V30 25 C 10.1332 -2.3701 -0.2188 0
M  V30 26 C 11.3571 -3.0867 -0.2391 0
M  V30 27 C 12.5371 -2.4622 0.1861 0
M  V30 28 C 12.4966 -1.1354 0.6116 0
M  V30 29 N 11.3234 -0.4524 0.6058 0
M  V30 30 C 10.1583 -1.0255 0.2043 0
M  V30 31 C 11.3856 -4.4126 -0.6927 0
M  V30 32 C 10.2151 -5.0291 -1.1322 0
M  V30 33 C 9.0043 -4.3366 -1.1114 0
M  V30 34 C 7.0656 -1.9422 0.6199 0
M  V30 35 C 5.8079 -1.3328 0.6574 0
M  V30 36 S -0.0356 -0.1609 -0.1658 0
M  V30 37 C -5.6517 0.8809 1.3151 0
M  V30 38 C -7.0437 0.9033 1.4456 0
M  V30 39 C -9.5137 3.8000 0.2460 0
M  V30 40 N -10.2960 4.9071 0.1492 0
M  V30 41 C -11.6505 4.8385 0.2094 0
M  V30 42 H -13.3638 3.5688 0.4464 0
M  V30 43 H -9.3943 -0.7991 0.8201 0
M  V30 44 H -11.8445 -0.9058 0.9873 0
M  V30 45 H -13.2080 1.1302 0.7706 0
M  V30 46 H -7.8486 2.0544 -1.6621 0
M  V30 47 H -5.3967 2.0212 -1.8874 0
M  V30 48 H -0.5631 3.3348 -0.5968 0
M  V30 49 H 1.9511 2.7353 -0.7566 0
M  V30 50 H 5.0829 -1.3987 -2.6729 0
M  V30 51 H 7.2986 -2.4711 -2.7413 0
M  V30 52 H 13.4818 -2.9930 0.1842 0
M  V30 53 H 13.4027 -0.6437 0.9396 0
M  V30 54 H 9.2636 -0.4192 0.2070 0
M  V30 55 H 12.3149 -4.9696 -0.7145 0
M  V30 56 H 10.2448 -6.0517 -1.4859 0
M  V30 57 H 8.1054 -4.8418 -1.4443 0
M  V30 58 H 7.6071 -2.1011 1.5445 0
M  V30 59 H 5.3947 -1.0219 1.6095 0
M  V30 60 H -5.0439 0.5466 2.1474 0
M  V30 61 H -7.4953 0.5865 2.3778 0
M  V30 62 H -8.4411 3.9279 0.2087 0
M  V30 63 H -12.2382 5.7430 0.1271 0
M  V30 END ATOM
M  V30 BEGIN BOND
M  V30 1 2 1 2
M  V30 2 1 2 3
M  V30 3 1 3 4
M  V30 4 2 4 5
M  V30 5 1 5 6
M  V30 6 2 6 7
M  V30 7 1 4 8
M  V30 8 2 8 9
M  V30 9 1 9 10
M  V30 10 2 10 11
M  V30 11 1 11 12
M  V30 12 3 12 13
M  V30 13 1 13 14
M  V30 14 2 14 15
M  V30 15 1 15 16
M  V30 16 2 16 17
M  V30 17 1 17 18
M  V30 18 3 18 19
M  V30 19 1 19 20
M  V30 20 2 20 21
M  V30 21 1 21 22
M  V30 22 2 22 23
M  V30 23 1 23 24
M  V30 24 1 24 25
M  V30 25 1 25 26
M  V30 26 2 26 27
M  V30 27 1 27 28
M  V30 28 2 28 29
M  V30 29 1 29 30
M  V30 30 1 26 31
M  V30 31 2 31 32
M  V30 32 1 32 33
M  V30 33 1 23 34
M  V30 34 2 34 35
M  V30 35 1 17 36
M  V30 36 1 11 37
M  V30 37 2 37 38
M  V30 38 2 3 39
M  V30 39 1 39 40
M  V30 40 2 40 41
M  V30 41 1 41 1
M  V30 42 1 7 2
M  V30 43 1 38 8
M  V30 44 1 36 14
M  V30 45 1 35 20
M  V30 46 2 33 24
M  V30 47 2 30 25
M  V30 48 1 1 42
M  V30 49 1 5 43
M  V30 50 1 6 44
M  V30 51 1 7 45
M  V30 52 1 9 46
M  V30 53 1 10 47
M  V30 54 1 15 48
M  V30 55 1 16 49
M  V30 56 1 21 50
M  V30 57 1 22 51
M  V30 58 1 27 52
M  V30 59 1 28 53
M  V30 60 1 30 54
M  V30 61 1 31 55
M  V30 62 1 32 56
M  V30 63 1 33 57
M  V30 64 1 34 58
M  V30 65 1 35 59
M  V30 66 1 37 60
M  V30 67 1 38 61
M  V30 68 1 39 62
M  V30 69 1 41 63
M  V30 END BOND
M  V30 END CTAB
M  END

$$$$
