
     RDKit          3D

  0  0  0  0  0  0  0  0  0  0999 V3000
M  V30 BEGIN CTAB
M  V30 COUNTS 63 69 0 0 0
M  V30 BEGIN ATOM
M  V30 1 C -12.7890 0.1989 0.2604 0
M  V30 2 C -11.7682 -0.6778 -0.1316 0
M  V30 3 C -10.4116 -0.2862 0.0016 0
M  V30 4 C -9.3843 -1.1835 -0.3948 0
M  V30 5 C -9.7339 -2.4307 -0.9390 0
M  V30 6 C -11.0725 -2.8005 -1.0718 0
M  V30 7 C -12.0860 -1.9334 -0.6661 0
M  V30 8 C -7.9459 -0.8629 -0.2405 0
M  V30 9 C -7.1111 -0.8004 -1.3672 0
M  V30 10 C -5.7521 -0.4986 -1.2235 0
M  V30 11 C -5.2149 -0.2657 0.0477 0
M  V30 12 C -3.8221 0.0634 0.1952 0
M  V30 13 C -2.6579 0.3485 0.3254 0
M  V30 14 C -1.2759 0.6990 0.4895 0
M  V30 15 C -0.8068 1.8518 1.1032 0
M  V30 16 C 0.5907 1.9221 1.1347 0
M  V30 17 C 1.2021 0.8223 0.5479 0
M  V30 18 C 2.6186 0.6129 0.4494 0
M  V30 19 C 3.8089 0.4364 0.3753 0
M  V30 20 C 5.2303 0.2236 0.2950 0
M  V30 21 C 5.9234 -0.2957 1.3957 0
M  V30 22 C 7.3033 -0.4998 1.3221 0
M  V30 23 C 8.0034 -0.1864 0.1466 0
M  V30 24 C 9.4592 -0.4363 0.0650 0
M  V30 25 C 10.4025 0.6050 -0.1323 0
M  V30 26 C 11.7808 0.2880 -0.2246 0
M  V30 27 C 12.7188 1.3099 -0.4170 0
M  V30 28 C 12.2852 2.6312 -0.5058 0
M  V30 29 N 10.9653 2.9246 -0.3965 0
M  V30 30 C 10.0269 1.9609 -0.2111 0
M  V30 31 C 12.2022 -1.0439 -0.1113 0
M  V30 32 C 11.2711 -2.0590 0.1005 0
M  V30 33 C 9.9123 -1.7593 0.1891 0
M  V30 34 C 7.3029 0.3205 -0.9604 0
M  V30 35 C 5.9225 0.5306 -0.8835 0
M  V30 36 S 0.0263 -0.2404 -0.0116 0
M  V30 37 C -6.0389 -0.3491 1.1768 0
M  V30 38 C -7.3977 -0.6518 1.0344 0
M  V30 39 C -10.1398 1.0040 0.5039 0
M  V30 40 N -11.1563 1.8296 0.8666 0
M  V30 41 C -12.4576 1.4569 0.7621 0
M  V30 42 H -13.8326 -0.0831 0.1751 0
M  V30 43 H -8.9640 -3.1280 -1.2470 0
M  V30 44 H -11.3246 -3.7685 -1.4861 0
M  V30 45 H -13.1186 -2.2396 -0.7765 0
M  V30 46 H -7.5144 -0.9771 -2.3568 0
M  V30 47 H -5.1233 -0.4442 -2.1035 0
M  V30 48 H -1.4521 2.6192 1.5145 0
M  V30 49 H 1.1341 2.7502 1.5710 0
M  V30 50 H 5.3974 -0.5410 2.3108 0
M  V30 51 H 7.8291 -0.8960 2.1818 0
M  V30 52 H 13.7767 1.0911 -0.4879 0
M  V30 53 H 13.0021 3.4264 -0.6527 0
M  V30 54 H 8.9958 2.2648 -0.1136 0
M  V30 55 H 13.2527 -1.2990 -0.1787 0
M  V30 56 H 11.6036 -3.0845 0.1953 0
M  V30 57 H 9.2057 -2.5657 0.3459 0
M  V30 58 H 7.8259 0.5482 -1.8823 0
M  V30 59 H 5.3949 0.9287 -1.7418 0
M  V30 60 H -5.6314 -0.1800 2.1649 0
M  V30 61 H -8.0248 -0.7163 1.9154 0
M  V30 62 H -9.1278 1.3717 0.5972 0
M  V30 63 H -13.2389 2.1438 1.0602 0
M  V30 END ATOM
M  V30 BEGIN BOND
M  V30 1 2 1 2
M  V30 2 1 2 3
M  V30 3 1 3 4
M  V30 4 2 4 5
M  V30 5 1 5 6
M  V30 6 2 6 7
M  V30 7 1 4 8
M  V30 8 2 8 9
M  V30 9 1 9 10
M  V30 10 2 10 11
M  V30 11 1 11 12
M  V30 12 3 12 13
M  V30 13 1 13 14
M  V30 14 2 14 15
M  V30 15 1 15 16
M  V30 16 2 16 17
M  V30 17 1 17 18
M  V30 18 3 18 19
M  V30 19 1 19 20
M  V30 20 2 20 21
M  V30 21 1 21 22
M  V30 22 2 22 23
M  V30 23 1 23 24
M  V30 24 1 24 25
M  V30 25 1 25 26
M  V30 26 2 26 27
M  V30 27 1 27 28
M  V30 28 2 28 29
M  V30 29 1 29 30
M  V30 30 1 26 31
M  V30 31 2 31 32
M  V30 32 1 32 33
M  V30 33 1 23 34
M  V30 34 2 34 35
M  V30 35 1 17 36
M  V30 36 1 11 37
M  V30 37 2 37 38
M  V30 38 2 3 39
M  V30 39 1 39 40
M  V30 40 2 40 41
M  V30 41 1 41 1
M  V30 42 1 7 2
M  V30 43 1 38 8
M  V30 44 1 36 14
M  V30 45 1 35 20
M  V30 46 2 33 24
M  V30 47 2 30 25
M  V30 48 1 1 42
M  V30 49 1 5 43
M  V30 50 1 6 44
M  V30 51 1 7 45
M  V30 52 1 9 46
M  V30 53 1 10 47
M  V30 54 1 15 48
M  V30 55 1 16 49
M  V30 56 1 21 50
M  V30 57 1 22 51
M  V30 58 1 27 52
M  V30 59 1 28 53
M  V30 60 1 30 54
M  V30 61 1 31 55
M  V30 62 1 32 56
M  V30 63 1 33 57
M  V30 64 1 34 58
M  V30 65 1 35 59
M  V30 66 1 37 60
M  V30 67 1 38 61
M  V30 68 1 39 62
M  V30 69 1 41 63
M  V30 END BOND
M  V30 END CTAB
M  END

$$$$
