
     RDKit          3D

  0  0  0  0  0  0  0  0  0  0999 V3000
M  V30 BEGIN CTAB
M  V30 COUNTS 63 69 0 0 0
M  V30 BEGIN ATOM
M  V30 1 C -12.6714 0.9994 -0.2257 0
M  V30 2 C -11.6446 0.4160 0.5283 0
M  V30 3 C -10.3110 0.4465 0.0463 0
M  V30 4 C -9.2765 -0.1421 0.8198 0
M  V30 5 C -9.5993 -0.7721 2.0331 0
M  V30 6 C -10.9157 -0.8009 2.4938 0
M  V30 7 C -11.9340 -0.2051 1.7511 0
M  V30 8 C -7.8551 -0.1049 0.4069 0
M  V30 9 C -7.1830 1.1221 0.2826 0
M  V30 10 C -5.8349 1.1531 -0.0866 0
M  V30 11 C -5.1445 -0.0418 -0.3250 0
M  V30 12 C -3.7568 -0.0095 -0.7045 0
M  V30 13 C -2.5944 0.0176 -1.0224 0
M  V30 14 C -1.2101 0.0499 -1.4008 0
M  V30 15 C -0.7306 0.0392 -2.7038 0
M  V30 16 C 0.6671 0.0777 -2.7707 0
M  V30 17 C 1.2673 0.1183 -1.5193 0
M  V30 18 C 2.6811 0.1632 -1.2747 0
M  V30 19 C 3.8682 0.2008 -1.0690 0
M  V30 20 C 5.2854 0.2457 -0.8232 0
M  V30 21 C 5.9861 1.4488 -0.9740 0
M  V30 22 C 7.3632 1.4929 -0.7353 0
M  V30 23 C 8.0495 0.3355 -0.3347 0
M  V30 24 C 9.5115 0.3795 -0.1049 0
M  V30 25 C 10.0950 0.0787 1.1537 0
M  V30 26 C 11.5069 0.0924 1.2880 0
M  V30 27 C 12.0919 -0.2088 2.5250 0
M  V30 28 C 11.2764 -0.5050 3.6160 0
M  V30 29 N 9.9256 -0.4933 3.4813 0
M  V30 30 C 9.3222 -0.2099 2.2970 0
M  V30 31 C 12.3127 0.4159 0.1877 0
M  V30 32 C 11.7309 0.7325 -1.0390 0
M  V30 33 C 10.3437 0.7167 -1.1851 0
M  V30 34 C 7.3446 -0.8717 -0.1984 0
M  V30 35 C 5.9677 -0.9147 -0.4369 0
M  V30 36 S 0.0822 0.1069 -0.3269 0
M  V30 37 C -5.8066 -1.2684 -0.1889 0
M  V30 38 C -7.1549 -1.3004 0.1800 0
M  V30 39 C -10.0722 1.0434 -1.2084 0
M  V30 40 N -11.0947 1.5955 -1.9131 0
M  V30 41 C -12.3713 1.5919 -1.4513 0
M  V30 42 H -13.6961 0.9924 0.1265 0
M  V30 43 H -8.8229 -1.2292 2.6350 0
M  V30 44 H -11.1467 -1.2831 3.4349 0
M  V30 45 H -12.9493 -0.2363 2.1288 0
M  V30 46 H -7.7033 2.0527 0.4739 0
M  V30 47 H -5.3307 2.1072 -0.1831 0
M  V30 48 H -1.3673 0.0046 -3.5784 0
M  V30 49 H 1.2184 0.0760 -3.7021 0
M  V30 50 H 5.4687 2.3513 -1.2766 0
M  V30 51 H 7.8937 2.4296 -0.8559 0
M  V30 52 H 13.1685 -0.2098 2.6482 0
M  V30 53 H 11.7184 -0.7367 4.5759 0
M  V30 54 H 8.2420 -0.1997 2.2639 0
M  V30 55 H 13.3924 0.4314 0.2786 0
M  V30 56 H 12.3587 0.9863 -1.8835 0
M  V30 57 H 9.9154 0.9521 -2.1521 0
M  V30 58 H 7.8626 -1.7781 0.0903 0
M  V30 59 H 5.4363 -1.8520 -0.3232 0
M  V30 60 H -5.2806 -2.1988 -0.3668 0
M  V30 61 H -7.6553 -2.2556 0.2823 0
M  V30 62 H -9.0828 1.0644 -1.6429 0
M  V30 63 H -13.1574 2.0430 -2.0419 0
M  V30 END ATOM
M  V30 BEGIN BOND
M  V30 1 2 1 2
M  V30 2 1 2 3
M  V30 3 1 3 4
M  V30 4 2 4 5
M  V30 5 1 5 6
M  V30 6 2 6 7
M  V30 7 1 4 8
M  V30 8 2 8 9
M  V30 9 1 9 10
M  V30 10 2 10 11
M  V30 11 1 11 12
M  V30 12 3 12 13
M  V30 13 1 13 14
M  V30 14 2 14 15
M  V30 15 1 15 16
M  V30 16 2 16 17
M  V30 17 1 17 18
M  V30 18 3 18 19
M  V30 19 1 19 20
M  V30 20 2 20 21
M  V30 21 1 21 22
M  V30 22 2 22 23
M  V30 23 1 23 24
M  V30 24 1 24 25
M  V30 25 1 25 26
M  V30 26 2 26 27
M  V30 27 1 27 28
M  V30 28 2 28 29
M  V30 29 1 29 30
M  V30 30 1 26 31
M  V30 31 2 31 32
M  V30 32 1 32 33
M  V30 33 1 23 34
M  V30 34 2 34 35
M  V30 35 1 17 36
M  V30 36 1 11 37
M  V30 37 2 37 38
M  V30 38 2 3 39
M  V30 39 1 39 40
M  V30 40 2 40 41
M  V30 41 1 41 1
M  V30 42 1 7 2
M  V30 43 1 38 8
M  V30 44 1 36 14
M  V30 45 1 35 20
M  V30 46 2 33 24
M  V30 47 2 30 25
M  V30 48 1 1 42
M  V30 49 1 5 43
M  V30 50 1 6 44
M  V30 51 1 7 45
M  V30 52 1 9 46
M  V30 53 1 10 47
M  V30 54 1 15 48
M  V30 55 1 16 49
M  V30 56 1 21 50
M  V30 57 1 22 51
M  V30 58 1 27 52
M  V30 59 1 28 53
M  V30 60 1 30 54
M  V30 61 1 31 55
M  V30 62 1 32 56
M  V30 63 1 33 57
M  V30 64 1 34 58
M  V30 65 1 35 59
M  V30 66 1 37 60
M  V30 67 1 38 61
M  V30 68 1 39 62
M  V30 69 1 41 63
M  V30 END BOND
M  V30 END CTAB
M  END

$$$$
