
     RDKit          3D

  0  0  0  0  0  0  0  0  0  0999 V3000
M  V30 BEGIN CTAB
M  V30 COUNTS 63 69 0 0 0
M  V30 BEGIN ATOM
M  V30 1 C -12.7552 0.1055 -0.9806 0
M  V30 2 C -11.7269 0.1409 -0.0296 0
M  V30 3 C -10.3769 0.0140 -0.4457 0
M  V30 4 C -9.3414 0.0573 0.5241 0
M  V30 5 C -9.6766 0.1924 1.8816 0
M  V30 6 C -11.0085 0.3101 2.2792 0
M  V30 7 C -12.0300 0.2918 1.3306 0
M  V30 8 C -7.9078 -0.0157 0.1611 0
M  V30 9 C -7.1088 -1.0617 0.6494 0
M  V30 10 C -5.7491 -1.1190 0.3285 0
M  V30 11 C -5.1747 -0.1263 -0.4753 0
M  V30 12 C -3.7744 -0.1835 -0.8017 0
M  V30 13 C -2.6010 -0.2309 -1.0735 0
M  V30 14 C -1.2031 -0.2872 -1.3950 0
M  V30 15 C -0.6733 -0.3823 -2.6749 0
M  V30 16 C 0.7260 -0.4206 -2.6842 0
M  V30 17 C 1.2770 -0.3550 -1.4114 0
M  V30 18 C 2.6799 -0.3774 -1.1082 0
M  V30 19 C 3.8575 -0.3966 -0.8514 0
M  V30 20 C 5.2626 -0.4199 -0.5418 0
M  V30 21 C 5.7014 -0.9252 0.6884 0
M  V30 22 C 7.0662 -0.9465 0.9911 0
M  V30 23 C 8.0033 -0.4539 0.0692 0
M  V30 24 C 9.4493 -0.4966 0.3841 0
M  V30 25 C 10.2456 0.6752 0.4705 0
M  V30 26 C 11.6348 0.5559 0.7306 0
M  V30 27 C 12.4295 1.7069 0.8128 0
M  V30 28 C 11.8410 2.9602 0.6515 0
M  V30 29 N 10.5066 3.0634 0.4246 0
M  V30 30 C 9.7045 1.9700 0.3347 0
M  V30 31 C 12.2073 -0.7103 0.9142 0
M  V30 32 C 11.4142 -1.8550 0.8498 0
M  V30 33 C 10.0477 -1.7507 0.5892 0
M  V30 34 C 7.5595 0.0389 -1.1689 0
M  V30 35 C 6.1944 0.0601 -1.4706 0
M  V30 36 S 0.0463 -0.2503 -0.2708 0
M  V30 37 C -5.9647 0.9260 -0.9546 0
M  V30 38 C -7.3243 0.9843 -0.6340 0
M  V30 39 C -10.1208 -0.1792 -1.8186 0
M  V30 40 N -11.1452 -0.2125 -2.7112 0
M  V30 41 C -12.4394 -0.0697 -2.3269 0
M  V30 42 H -13.7928 0.2068 -0.6851 0
M  V30 43 H -8.8994 0.2243 2.6358 0
M  V30 44 H -11.2497 0.4219 3.3286 0
M  V30 45 H -13.0576 0.3879 1.6608 0
M  V30 46 H -7.5406 -1.8349 1.2731 0
M  V30 47 H -5.1460 -1.9351 0.7082 0
M  V30 48 H -1.2757 -0.4240 -3.5732 0
M  V30 49 H 1.3131 -0.4953 -3.5902 0
M  V30 50 H 4.9892 -1.3026 1.4124 0
M  V30 51 H 7.3927 -1.3397 1.9462 0
M  V30 52 H 13.4936 1.6382 1.0053 0
M  V30 53 H 12.4457 3.8550 0.7153 0
M  V30 54 H 8.6474 2.1241 0.1711 0
M  V30 55 H 13.2671 -0.8140 1.1152 0
M  V30 56 H 11.8616 -2.8295 0.9976 0
M  V30 57 H 9.4545 -2.6555 0.5302 0
M  V30 58 H 8.2711 0.4047 -1.8990 0
M  V30 59 H 5.8661 0.4478 -2.4275 0
M  V30 60 H -5.5291 1.7025 -1.5719 0
M  V30 61 H -7.9223 1.8090 -1.0019 0
M  V30 62 H -9.1153 -0.3179 -2.1898 0
M  V30 63 H -13.2264 -0.1008 -3.0684 0
M  V30 END ATOM
M  V30 BEGIN BOND
M  V30 1 2 1 2
M  V30 2 1 2 3
M  V30 3 1 3 4
M  V30 4 2 4 5
M  V30 5 1 5 6
M  V30 6 2 6 7
M  V30 7 1 4 8
M  V30 8 2 8 9
M  V30 9 1 9 10
M  V30 10 2 10 11
M  V30 11 1 11 12
M  V30 12 3 12 13
M  V30 13 1 13 14
M  V30 14 2 14 15
M  V30 15 1 15 16
M  V30 16 2 16 17
M  V30 17 1 17 18
M  V30 18 3 18 19
M  V30 19 1 19 20
M  V30 20 2 20 21
M  V30 21 1 21 22
M  V30 22 2 22 23
M  V30 23 1 23 24
M  V30 24 1 24 25
M  V30 25 1 25 26
M  V30 26 2 26 27
M  V30 27 1 27 28
M  V30 28 2 28 29
M  V30 29 1 29 30
M  V30 30 1 26 31
M  V30 31 2 31 32
M  V30 32 1 32 33
M  V30 33 1 23 34
M  V30 34 2 34 35
M  V30 35 1 17 36
M  V30 36 1 11 37
M  V30 37 2 37 38
M  V30 38 2 3 39
M  V30 39 1 39 40
M  V30 40 2 40 41
M  V30 41 1 41 1
M  V30 42 1 7 2
M  V30 43 1 38 8
M  V30 44 1 36 14
M  V30 45 1 35 20
M  V30 46 2 33 24
M  V30 47 2 30 25
M  V30 48 1 1 42
M  V30 49 1 5 43
M  V30 50 1 6 44
M  V30 51 1 7 45
M  V30 52 1 9 46
M  V30 53 1 10 47
M  V30 54 1 15 48
M  V30 55 1 16 49
M  V30 56 1 21 50
M  V30 57 1 22 51
M  V30 58 1 27 52
M  V30 59 1 28 53
M  V30 60 1 30 54
M  V30 61 1 31 55
M  V30 62 1 32 56
M  V30 63 1 33 57
M  V30 64 1 34 58
M  V30 65 1 35 59
M  V30 66 1 37 60
M  V30 67 1 38 61
M  V30 68 1 39 62
M  V30 69 1 41 63
M  V30 END BOND
M  V30 END CTAB
M  END

$$$$
