
     RDKit          3D

  0  0  0  0  0  0  0  0  0  0999 V3000
M  V30 BEGIN CTAB
M  V30 COUNTS 63 69 0 0 0
M  V30 BEGIN ATOM
M  V30 1 C 11.6344 0.5024 -4.2015 0
M  V30 2 C 11.1944 0.0352 -2.9560 0
M  V30 3 C 9.8416 0.2194 -2.5717 0
M  V30 4 C 9.4034 -0.2620 -1.3103 0
M  V30 5 C 10.3268 -0.8835 -0.4535 0
M  V30 6 C 11.6562 -1.0536 -0.8403 0
M  V30 7 C 12.0892 -0.6038 -2.0868 0
M  V30 8 C 7.9970 -0.1505 -0.8614 0
M  V30 9 C 7.6817 0.5783 0.2963 0
M  V30 10 C 6.3566 0.6687 0.7333 0
M  V30 11 C 5.3370 0.0235 0.0222 0
M  V30 12 C 3.9732 0.1179 0.4717 0
M  V30 13 C 2.8309 0.1976 0.8479 0
M  V30 14 C 1.4704 0.2931 1.2958 0
M  V30 15 C 1.0585 0.8127 2.5157 0
M  V30 16 C -0.3311 0.7801 2.6807 0
M  V30 17 C -0.9927 0.2353 1.5884 0
M  V30 18 C -2.4143 0.0747 1.4709 0
M  V30 19 C -3.6082 -0.0595 1.3721 0
M  V30 20 C -5.0335 -0.2187 1.2541 0
M  V30 21 C -5.8007 0.7720 0.6286 0
M  V30 22 C -7.1854 0.6180 0.5138 0
M  V30 23 C -7.8164 -0.5243 1.0331 0
M  V30 24 C -9.2799 -0.7001 0.8940 0
M  V30 25 C -10.2143 0.1915 1.4827 0
M  V30 26 C -11.6015 -0.0096 1.2653 0
M  V30 27 C -12.5308 0.8689 1.8377 0
M  V30 28 C -12.0804 1.9248 2.6285 0
M  V30 29 N -10.7515 2.0944 2.8480 0
M  V30 30 C -9.8204 1.2655 2.3066 0
M  V30 31 C -12.0397 -1.0903 0.4877 0
M  V30 32 C -11.1164 -1.9749 -0.0679 0
M  V30 33 C -9.7493 -1.7840 0.1338 0
M  V30 34 C -7.0412 -1.5208 1.6471 0
M  V30 35 C -5.6562 -1.3662 1.7611 0
M  V30 36 S 0.1281 -0.2078 0.4161 0
M  V30 37 C 5.6480 -0.7164 -1.1255 0
M  V30 38 C 6.9728 -0.8074 -1.5630 0
M  V30 39 C 8.9870 0.9053 -3.4587 0
M  V30 40 N 9.4512 1.3476 -4.6570 0
M  V30 41 C 10.7382 1.1574 -5.0446 0
M  V30 42 H 12.6621 0.3671 -4.5173 0
M  V30 43 H 10.0105 -1.2543 0.5143 0
M  V30 44 H 12.3535 -1.5421 -0.1718 0
M  V30 45 H 13.1255 -0.7486 -2.3685 0
M  V30 46 H 8.4611 1.0818 0.8552 0
M  V30 47 H 6.1273 1.2403 1.6247 0
M  V30 48 H 1.7374 1.2033 3.2627 0
M  V30 49 H -0.8335 1.1431 3.5681 0
M  V30 50 H -5.3284 1.6608 0.2277 0
M  V30 51 H -7.7665 1.3869 0.0193 0
M  V30 52 H -13.5947 0.7370 1.6797 0
M  V30 53 H -12.7902 2.6071 3.0768 0
M  V30 54 H -8.7801 1.4464 2.5371 0
M  V30 55 H -13.0969 -1.2551 0.3159 0
M  V30 56 H -11.4617 -2.8103 -0.6632 0
M  V30 57 H -9.0505 -2.4763 -0.3204 0
M  V30 58 H -7.5108 -2.4131 2.0431 0
M  V30 59 H -5.0716 -2.1405 2.2432 0
M  V30 60 H 4.8678 -1.2244 -1.6796 0
M  V30 61 H 7.2019 -1.3903 -2.4468 0
M  V30 62 H 7.9560 1.1065 -3.2049 0
M  V30 63 H 11.0688 1.5237 -6.0073 0
M  V30 END ATOM
M  V30 BEGIN BOND
M  V30 1 2 1 2
M  V30 2 1 2 3
M  V30 3 1 3 4
M  V30 4 2 4 5
M  V30 5 1 5 6
M  V30 6 2 6 7
M  V30 7 1 4 8
M  V30 8 2 8 9
M  V30 9 1 9 10
M  V30 10 2 10 11
M  V30 11 1 11 12
M  V30 12 3 12 13
M  V30 13 1 13 14
M  V30 14 2 14 15
M  V30 15 1 15 16
M  V30 16 2 16 17
M  V30 17 1 17 18
M  V30 18 3 18 19
M  V30 19 1 19 20
M  V30 20 2 20 21
M  V30 21 1 21 22
M  V30 22 2 22 23
M  V30 23 1 23 24
M  V30 24 1 24 25
M  V30 25 1 25 26
M  V30 26 2 26 27
M  V30 27 1 27 28
M  V30 28 2 28 29
M  V30 29 1 29 30
M  V30 30 1 26 31
M  V30 31 2 31 32
M  V30 32 1 32 33
M  V30 33 1 23 34
M  V30 34 2 34 35
M  V30 35 1 17 36
M  V30 36 1 11 37
M  V30 37 2 37 38
M  V30 38 2 3 39
M  V30 39 1 39 40
M  V30 40 2 40 41
M  V30 41 1 41 1
M  V30 42 1 7 2
M  V30 43 1 38 8
M  V30 44 1 36 14
M  V30 45 1 35 20
M  V30 46 2 33 24
M  V30 47 2 30 25
M  V30 48 1 1 42
M  V30 49 1 5 43
M  V30 50 1 6 44
M  V30 51 1 7 45
M  V30 52 1 9 46
M  V30 53 1 10 47
M  V30 54 1 15 48
M  V30 55 1 16 49
M  V30 56 1 21 50
M  V30 57 1 22 51
M  V30 58 1 27 52
M  V30 59 1 28 53
M  V30 60 1 30 54
M  V30 61 1 31 55
M  V30 62 1 32 56
M  V30 63 1 33 57
M  V30 64 1 34 58
M  V30 65 1 35 59
M  V30 66 1 37 60
M  V30 67 1 38 61
M  V30 68 1 39 62
M  V30 69 1 41 63
M  V30 END BOND
M  V30 END CTAB
M  END

$$$$
