
     RDKit          3D

  0  0  0  0  0  0  0  0  0  0999 V3000
M  V30 BEGIN CTAB
M  V30 COUNTS 63 69 0 0 0
M  V30 BEGIN ATOM
M  V30 1 C 12.7210 -1.0090 0.9746 0
M  V30 2 C 11.7610 -0.0788 0.5549 0
M  V30 3 C 10.3848 -0.4203 0.5917 0
M  V30 4 C 9.4190 0.5306 0.1700 0
M  V30 5 C 9.8477 1.7805 -0.3063 0
M  V30 6 C 11.2045 2.1026 -0.3435 0
M  V30 7 C 12.1579 1.1827 0.0905 0
M  V30 8 C 7.9635 0.2652 0.2276 0
M  V30 9 C 7.1962 0.2823 -0.9480 0
M  V30 10 C 5.8179 0.0533 -0.8935 0
M  V30 11 C 5.1936 -0.1853 0.3372 0
M  V30 12 C 3.7751 -0.4209 0.3927 0
M  V30 13 C 2.5869 -0.6183 0.4391 0
M  V30 14 C 1.1718 -0.8533 0.4943 0
M  V30 15 C 0.5525 -1.8810 1.1928 0
M  V30 16 C -0.8414 -1.8638 1.0658 0
M  V30 17 C -1.2988 -0.8227 0.2692 0
M  V30 18 C -2.6744 -0.5531 -0.0403 0
M  V30 19 C -3.8295 -0.3267 -0.3001 0
M  V30 20 C -5.2085 -0.0566 -0.6102 0
M  V30 21 C -6.1345 -1.1058 -0.6630 0
M  V30 22 C -7.4742 -0.8438 -0.9648 0
M  V30 23 C -7.9014 0.4722 -1.2066 0
M  V30 24 C -9.3148 0.7503 -1.5489 0
M  V30 25 C -10.3840 0.4733 -0.6573 0
M  V30 26 C -11.7181 0.7193 -1.0717 0
M  V30 27 C -12.7801 0.4436 -0.2004 0
M  V30 28 C -12.5115 -0.0570 1.0725 0
M  V30 29 N -11.2295 -0.2676 1.4664 0
M  V30 30 C -10.1740 -0.0160 0.6481 0
M  V30 31 C -11.9705 1.2459 -2.3459 0
M  V30 32 C -10.9134 1.5366 -3.2069 0
M  V30 33 C -9.5974 1.2934 -2.8131 0
M  V30 34 C -6.9664 1.5188 -1.1657 0
M  V30 35 C -5.6266 1.2557 -0.8641 0
M  V30 36 S 0.0083 0.0799 -0.2816 0
M  V30 37 C 5.9523 -0.1900 1.5143 0
M  V30 38 C 7.3305 0.0393 1.4609 0
M  V30 39 C 10.0336 -1.7151 1.0253 0
M  V30 40 N 10.9937 -2.5919 1.4209 0
M  V30 41 C 12.3121 -2.2681 1.4109 0
M  V30 42 H 13.7771 -0.7667 0.9601 0
M  V30 43 H 9.1246 2.5174 -0.6351 0
M  V30 44 H 11.5181 3.0732 -0.7055 0
M  V30 45 H 13.2064 1.4543 0.0559 0
M  V30 46 H 7.6669 0.4660 -1.9060 0
M  V30 47 H 5.2395 0.0634 -1.8096 0
M  V30 48 H 1.0878 -2.6197 1.7754 0
M  V30 49 H -1.4911 -2.5878 1.5403 0
M  V30 50 H -5.8204 -2.1254 -0.4742 0
M  V30 51 H -8.1788 -1.6651 -1.0124 0
M  V30 52 H -13.8070 0.6187 -0.4988 0
M  V30 53 H -13.3246 -0.2710 1.7533 0
M  V30 54 H -9.1783 -0.1884 1.0315 0
M  V30 55 H -12.9853 1.4397 -2.6729 0
M  V30 56 H -11.1149 1.9477 -4.1878 0
M  V30 57 H -8.7936 1.5139 -3.5053 0
M  V30 58 H -7.2770 2.5380 -1.3606 0
M  V30 59 H -4.9176 2.0742 -0.8301 0
M  V30 60 H 5.4785 -0.3675 2.4724 0
M  V30 61 H 7.9047 0.0429 2.3794 0
M  V30 62 H 9.0042 -2.0439 1.0406 0
M  V30 63 H 13.0458 -2.9941 1.7348 0
M  V30 END ATOM
M  V30 BEGIN BOND
M  V30 1 2 1 2
M  V30 2 1 2 3
M  V30 3 1 3 4
M  V30 4 2 4 5
M  V30 5 1 5 6
M  V30 6 2 6 7
M  V30 7 1 4 8
M  V30 8 2 8 9
M  V30 9 1 9 10
M  V30 10 2 10 11
M  V30 11 1 11 12
M  V30 12 3 12 13
M  V30 13 1 13 14
M  V30 14 2 14 15
M  V30 15 1 15 16
M  V30 16 2 16 17
M  V30 17 1 17 18
M  V30 18 3 18 19
M  V30 19 1 19 20
M  V30 20 2 20 21
M  V30 21 1 21 22
M  V30 22 2 22 23
M  V30 23 1 23 24
M  V30 24 1 24 25
M  V30 25 1 25 26
M  V30 26 2 26 27
M  V30 27 1 27 28
M  V30 28 2 28 29
M  V30 29 1 29 30
M  V30 30 1 26 31
M  V30 31 2 31 32
M  V30 32 1 32 33
M  V30 33 1 23 34
M  V30 34 2 34 35
M  V30 35 1 17 36
M  V30 36 1 11 37
M  V30 37 2 37 38
M  V30 38 2 3 39
M  V30 39 1 39 40
M  V30 40 2 40 41
M  V30 41 1 41 1
M  V30 42 1 7 2
M  V30 43 1 38 8
M  V30 44 1 36 14
M  V30 45 1 35 20
M  V30 46 2 33 24
M  V30 47 2 30 25
M  V30 48 1 1 42
M  V30 49 1 5 43
M  V30 50 1 6 44
M  V30 51 1 7 45
M  V30 52 1 9 46
M  V30 53 1 10 47
M  V30 54 1 15 48
M  V30 55 1 16 49
M  V30 56 1 21 50
M  V30 57 1 22 51
M  V30 58 1 27 52
M  V30 59 1 28 53
M  V30 60 1 30 54
M  V30 61 1 31 55
M  V30 62 1 32 56
M  V30 63 1 33 57
M  V30 64 1 34 58
M  V30 65 1 35 59
M  V30 66 1 37 60
M  V30 67 1 38 61
M  V30 68 1 39 62
M  V30 69 1 41 63
M  V30 END BOND
M  V30 END CTAB
M  END

$$$$
