
     RDKit          3D

  0  0  0  0  0  0  0  0  0  0999 V3000
M  V30 BEGIN CTAB
M  V30 COUNTS 63 69 0 0 0
M  V30 BEGIN ATOM
M  V30 1 C -12.7341 -0.6287 -0.7292 0
M  V30 2 C -11.7510 0.0786 -0.0246 0
M  V30 3 C -10.3807 -0.1266 -0.3282 0
M  V30 4 C -9.3924 0.5968 0.3890 0
M  V30 5 C -9.7897 1.4791 1.4072 0
M  V30 6 C -11.1403 1.6688 1.6998 0
M  V30 7 C -12.1183 0.9790 0.9850 0
M  V30 8 C -7.9468 0.4715 0.0962 0
M  V30 9 C -7.0649 0.0047 1.0836 0
M  V30 10 C -5.6964 -0.0968 0.8155 0
M  V30 11 C -5.1968 0.2769 -0.4384 0
M  V30 12 C -3.7882 0.1736 -0.7135 0
M  V30 13 C -2.6079 0.0886 -0.9424 0
M  V30 14 C -1.2014 -0.0105 -1.2121 0
M  V30 15 C -0.6235 -0.0651 -2.4733 0
M  V30 16 C 0.7732 -0.1485 -2.4299 0
M  V30 17 C 1.2741 -0.1570 -1.1354 0
M  V30 18 C 2.6627 -0.2345 -0.7795 0
M  V30 19 C 3.8282 -0.2991 -0.4789 0
M  V30 20 C 5.2193 -0.3755 -0.1179 0
M  V30 21 C 6.1826 -0.6687 -1.0910 0
M  V30 22 C 7.5337 -0.7441 -0.7398 0
M  V30 23 C 7.9343 -0.5168 0.5869 0
M  V30 24 C 9.3614 -0.6202 0.9674 0
M  V30 25 C 10.3581 0.2342 0.4281 0
M  V30 26 C 11.7134 0.0456 0.8014 0
M  V30 27 C 12.7050 0.8806 0.2697 0
M  V30 28 C 12.3446 1.9001 -0.6101 0
M  V30 29 N 11.0419 2.0847 -0.9437 0
M  V30 30 C 10.0530 1.2924 -0.4520 0
M  V30 31 C 12.0565 -0.9669 1.7078 0
M  V30 32 C 11.0687 -1.7865 2.2510 0
M  V30 33 C 9.7333 -1.6154 1.8862 0
M  V30 34 C 6.9631 -0.2349 1.5607 0
M  V30 35 C 5.6120 -0.1608 1.2087 0
M  V30 36 S 0.0024 -0.0626 -0.0400 0
M  V30 37 C -6.0703 0.7579 -1.4218 0
M  V30 38 C -7.4389 0.8590 -1.1547 0
M  V30 39 C -10.0551 -1.0721 -1.3221 0
M  V30 40 N -11.0366 -1.7417 -1.9818 0
M  V30 41 C -12.3521 -1.5380 -1.7142 0
M  V30 42 H -13.7868 -0.4837 -0.5164 0
M  V30 43 H -9.0486 2.0364 1.9679 0
M  V30 44 H -11.4303 2.3585 2.4820 0
M  V30 45 H -13.1617 1.1434 1.2261 0
M  V30 46 H -7.4391 -0.2869 2.0572 0
M  V30 47 H -5.0287 -0.4649 1.5851 0
M  V30 48 H -1.1898 -0.0434 -3.3957 0
M  V30 49 H 1.3943 -0.1977 -3.3147 0
M  V30 50 H 5.8891 -0.8416 -2.1193 0
M  V30 51 H 8.2679 -0.9822 -1.4996 0
M  V30 52 H 13.7471 0.7504 0.5365 0
M  V30 53 H 13.1019 2.5524 -1.0234 0
M  V30 54 H 9.0350 1.5064 -0.7442 0
M  V30 55 H 13.0882 -1.1190 2.0020 0
M  V30 56 H 11.3393 -2.5625 2.9554 0
M  V30 57 H 8.9852 -2.2741 2.3108 0
M  V30 58 H 7.2536 -0.0663 2.5903 0
M  V30 59 H 4.8743 0.0623 1.9700 0
M  V30 60 H -5.6931 1.0572 -2.3924 0
M  V30 61 H -8.1032 1.2404 -1.9205 0
M  V30 62 H -9.0275 -1.2954 -1.5723 0
M  V30 63 H -13.1037 -2.0908 -2.2620 0
M  V30 END ATOM
M  V30 BEGIN BOND
M  V30 1 2 1 2
M  V30 2 1 2 3
M  V30 3 1 3 4
M  V30 4 2 4 5
M  V30 5 1 5 6
M  V30 6 2 6 7
M  V30 7 1 4 8
M  V30 8 2 8 9
M  V30 9 1 9 10
M  V30 10 2 10 11
M  V30 11 1 11 12
M  V30 12 3 12 13
M  V30 13 1 13 14
M  V30 14 2 14 15
M  V30 15 1 15 16
M  V30 16 2 16 17
M  V30 17 1 17 18
M  V30 18 3 18 19
M  V30 19 1 19 20
M  V30 20 2 20 21
M  V30 21 1 21 22
M  V30 22 2 22 23
M  V30 23 1 23 24
M  V30 24 1 24 25
M  V30 25 1 25 26
M  V30 26 2 26 27
M  V30 27 1 27 28
M  V30 28 2 28 29
M  V30 29 1 29 30
M  V30 30 1 26 31
M  V30 31 2 31 32
M  V30 32 1 32 33
M  V30 33 1 23 34
M  V30 34 2 34 35
M  V30 35 1 17 36
M  V30 36 1 11 37
M  V30 37 2 37 38
M  V30 38 2 3 39
M  V30 39 1 39 40
M  V30 40 2 40 41
M  V30 41 1 41 1
M  V30 42 1 7 2
M  V30 43 1 38 8
M  V30 44 1 36 14
M  V30 45 1 35 20
M  V30 46 2 33 24
M  V30 47 2 30 25
M  V30 48 1 1 42
M  V30 49 1 5 43
M  V30 50 1 6 44
M  V30 51 1 7 45
M  V30 52 1 9 46
M  V30 53 1 10 47
M  V30 54 1 15 48
M  V30 55 1 16 49
M  V30 56 1 21 50
M  V30 57 1 22 51
M  V30 58 1 27 52
M  V30 59 1 28 53
M  V30 60 1 30 54
M  V30 61 1 31 55
M  V30 62 1 32 56
M  V30 63 1 33 57
M  V30 64 1 34 58
M  V30 65 1 35 59
M  V30 66 1 37 60
M  V30 67 1 38 61
M  V30 68 1 39 62
M  V30 69 1 41 63
M  V30 END BOND
M  V30 END CTAB
M  END

$$$$
