
     RDKit          3D

  0  0  0  0  0  0  0  0  0  0999 V3000
M  V30 BEGIN CTAB
M  V30 COUNTS 63 69 0 0 0
M  V30 BEGIN ATOM
M  V30 1 C 12.0504 -0.6570 2.3703 0
M  V30 2 C 11.4489 0.0189 1.3007 0
M  V30 3 C 10.0590 -0.1326 1.0631 0
M  V30 4 C 9.4566 0.5626 -0.0179 0
M  V30 5 C 10.2568 1.3599 -0.8528 0
M  V30 6 C 11.6244 1.4949 -0.6135 0
M  V30 7 C 12.2188 0.8354 0.4610 0
M  V30 8 C 8.0039 0.4962 -0.2961 0
M  V30 9 C 7.0769 0.9699 0.6468 0
M  V30 10 C 5.7069 0.9241 0.3725 0
M  V30 11 C 5.2523 0.4164 -0.8508 0
M  V30 12 C 3.8419 0.3696 -1.1327 0
M  V30 13 C 2.6605 0.3297 -1.3680 0
M  V30 14 C 1.2531 0.2813 -1.6469 0
M  V30 15 C 0.6843 0.1760 -2.9087 0
M  V30 16 C -0.7149 0.1506 -2.8761 0
M  V30 17 C -1.2271 0.2362 -1.5882 0
M  V30 18 C -2.6207 0.2381 -1.2437 0
M  V30 19 C -3.7904 0.2416 -0.9526 0
M  V30 20 C -5.1862 0.2483 -0.6033 0
M  V30 21 C -5.6440 -0.5229 0.4723 0
M  V30 22 C -6.9989 -0.5107 0.8168 0
M  V30 23 C -7.9099 0.2653 0.0815 0
M  V30 24 C -9.3400 0.3040 0.4635 0
M  V30 25 C -10.1664 -0.8501 0.4458 0
M  V30 26 C -11.5141 -0.7487 0.8763 0
M  V30 27 C -12.3355 -1.8838 0.8675 0
M  V30 28 C -11.8213 -3.0997 0.4204 0
M  V30 29 N -10.5364 -3.1801 -0.0104 0
M  V30 30 C -9.7085 -2.1023 -0.0124 0
M  V30 31 C -12.0236 0.4863 1.2999 0
M  V30 32 C -11.2122 1.6200 1.2920 0
M  V30 33 C -9.8835 1.5317 0.8766 0
M  V30 34 C -7.4438 1.0451 -0.9890 0
M  V30 35 C -6.0884 1.0329 -1.3323 0
M  V30 36 S 0.0380 0.3431 -0.4864 0
M  V30 37 C 6.1733 -0.0433 -1.8002 0
M  V30 38 C 7.5437 -0.0001 -1.5260 0
M  V30 39 C 9.3328 -0.9995 1.9045 0
M  V30 40 N 9.9520 -1.6416 2.9297 0
M  V30 41 C 11.2765 -1.4851 3.1813 0
M  V30 42 H 13.1093 -0.5504 2.5735 0
M  V30 43 H 9.8151 1.8946 -1.6851 0
M  V30 44 H 12.2257 2.1194 -1.2618 0
M  V30 45 H 13.2822 0.9568 0.6309 0
M  V30 46 H 7.4163 1.3751 1.5922 0
M  V30 47 H 5.0031 1.2868 1.1118 0
M  V30 48 H 1.2592 0.1202 -3.8243 0
M  V30 49 H -1.3296 0.0735 -3.7632 0
M  V30 50 H -4.9536 -1.1283 1.0472 0
M  V30 51 H -7.3384 -1.1020 1.6584 0
M  V30 52 H -13.3660 -1.8299 1.1982 0
M  V30 53 H -12.4482 -3.9812 0.4077 0
M  V30 54 H -8.7028 -2.2319 -0.3857 0
M  V30 55 H -13.0516 0.5764 1.6299 0
M  V30 56 H -11.6131 2.5718 1.6155 0
M  V30 57 H -9.2685 2.4237 0.8938 0
M  V30 58 H -8.1310 1.6579 -1.5594 0
M  V30 59 H -5.7435 1.6368 -2.1632 0
M  V30 60 H 5.8324 -0.4339 -2.7515 0
M  V30 61 H 8.2460 -0.3592 -2.2685 0
M  V30 62 H 8.2798 -1.1842 1.7484 0
M  V30 63 H 11.7319 -2.0127 4.0085 0
M  V30 END ATOM
M  V30 BEGIN BOND
M  V30 1 2 1 2
M  V30 2 1 2 3
M  V30 3 1 3 4
M  V30 4 2 4 5
M  V30 5 1 5 6
M  V30 6 2 6 7
M  V30 7 1 4 8
M  V30 8 2 8 9
M  V30 9 1 9 10
M  V30 10 2 10 11
M  V30 11 1 11 12
M  V30 12 3 12 13
M  V30 13 1 13 14
M  V30 14 2 14 15
M  V30 15 1 15 16
M  V30 16 2 16 17
M  V30 17 1 17 18
M  V30 18 3 18 19
M  V30 19 1 19 20
M  V30 20 2 20 21
M  V30 21 1 21 22
M  V30 22 2 22 23
M  V30 23 1 23 24
M  V30 24 1 24 25
M  V30 25 1 25 26
M  V30 26 2 26 27
M  V30 27 1 27 28
M  V30 28 2 28 29
M  V30 29 1 29 30
M  V30 30 1 26 31
M  V30 31 2 31 32
M  V30 32 1 32 33
M  V30 33 1 23 34
M  V30 34 2 34 35
M  V30 35 1 17 36
M  V30 36 1 11 37
M  V30 37 2 37 38
M  V30 38 2 3 39
M  V30 39 1 39 40
M  V30 40 2 40 41
M  V30 41 1 41 1
M  V30 42 1 7 2
M  V30 43 1 38 8
M  V30 44 1 36 14
M  V30 45 1 35 20
M  V30 46 2 33 24
M  V30 47 2 30 25
M  V30 48 1 1 42
M  V30 49 1 5 43
M  V30 50 1 6 44
M  V30 51 1 7 45
M  V30 52 1 9 46
M  V30 53 1 10 47
M  V30 54 1 15 48
M  V30 55 1 16 49
M  V30 56 1 21 50
M  V30 57 1 22 51
M  V30 58 1 27 52
M  V30 59 1 28 53
M  V30 60 1 30 54
M  V30 61 1 31 55
M  V30 62 1 32 56
M  V30 63 1 33 57
M  V30 64 1 34 58
M  V30 65 1 35 59
M  V30 66 1 37 60
M  V30 67 1 38 61
M  V30 68 1 39 62
M  V30 69 1 41 63
M  V30 END BOND
M  V30 END CTAB
M  END

$$$$
