
     RDKit          3D

  0  0  0  0  0  0  0  0  0  0999 V3000
M  V30 BEGIN CTAB
M  V30 COUNTS 63 69 0 0 0
M  V30 BEGIN ATOM
M  V30 1 C -12.0007 -0.6727 2.3570 0
M  V30 2 C -11.4325 -0.6333 1.0769 0
M  V30 3 C -10.0218 -0.6488 0.9308 0
M  V30 4 C -9.4550 -0.6028 -0.3698 0
M  V30 5 C -10.3038 -0.5756 -1.4886 0
M  V30 6 C -11.6900 -0.5668 -1.3323 0
M  V30 7 C -12.2543 -0.5886 -0.0577 0
M  V30 8 C -7.9928 -0.5642 -0.5994 0
M  V30 9 C -7.2284 0.5179 -0.1330 0
M  V30 10 C -5.8512 0.5621 -0.3700 0
M  V30 11 C -5.2281 -0.4692 -1.0835 0
M  V30 12 C -3.8107 -0.4231 -1.3276 0
M  V30 13 C -2.6234 -0.3843 -1.5319 0
M  V30 14 C -1.2093 -0.3380 -1.7750 0
M  V30 15 C -0.5849 -0.6836 -2.9660 0
M  V30 16 C 0.8064 -0.5394 -2.9138 0
M  V30 17 C 1.2568 -0.0825 -1.6825 0
M  V30 18 C 2.6283 0.1597 -1.3348 0
M  V30 19 C 3.7800 0.3630 -1.0427 0
M  V30 20 C 5.1548 0.6057 -0.6940 0
M  V30 21 C 5.6242 0.2733 0.5829 0
M  V30 22 C 6.9598 0.5093 0.9223 0
M  V30 23 C 7.8403 1.0710 -0.0168 0
M  V30 24 C 9.2496 1.3431 0.3468 0
M  V30 25 C 10.1557 0.3129 0.7109 0
M  V30 26 C 11.4781 0.6522 1.0955 0
M  V30 27 C 12.3777 -0.3576 1.4619 0
M  V30 28 C 11.9656 -1.6888 1.4300 0
M  V30 29 N 10.7042 -2.0034 1.0388 0
M  V30 30 C 9.8027 -1.0516 0.6804 0
M  V30 31 C 11.8848 1.9936 1.0991 0
M  V30 32 C 10.9956 2.9973 0.7182 0
M  V30 33 C 9.6906 2.6767 0.3436 0
M  V30 34 C 7.3615 1.4149 -1.2910 0
M  V30 35 C 6.0255 1.1788 -1.6293 0
M  V30 36 S -0.0535 0.1458 -0.6541 0
M  V30 37 C -5.9882 -1.5435 -1.5626 0
M  V30 38 C -7.3655 -1.5888 -1.3258 0
M  V30 39 C -9.2346 -0.7377 2.0971 0
M  V30 40 N -9.8222 -0.7782 3.3219 0
M  V30 41 C -11.1706 -0.7415 3.4747 0
M  V30 42 H -13.0758 -0.6560 2.4915 0
M  V30 43 H -9.8887 -0.5433 -2.4889 0
M  V30 44 H -12.3303 -0.5373 -2.2045 0
M  V30 45 H -13.3333 -0.5783 0.0413 0
M  V30 46 H -7.7003 1.3267 0.4115 0
M  V30 47 H -5.2736 1.4008 -0.0001 0
M  V30 48 H -1.1148 -1.0286 -3.8445 0
M  V30 49 H 1.4594 -0.7619 -3.7479 0
M  V30 50 H 4.9576 -0.1648 1.3161 0
M  V30 51 H 7.3083 0.2569 1.9163 0
M  V30 52 H 13.3908 -0.1201 1.7644 0
M  V30 53 H 12.6534 -2.4758 1.7088 0
M  V30 54 H 8.8212 -1.3724 0.3614 0
M  V30 55 H 12.8930 2.2648 1.3893 0
M  V30 56 H 11.3175 4.0308 0.7184 0
M  V30 57 H 9.0135 3.4756 0.0655 0
M  V30 58 H 8.0246 1.8592 -2.0232 0
M  V30 59 H 5.6716 1.4436 -2.6185 0
M  V30 60 H -5.5167 -2.3445 -2.1194 0
M  V30 61 H -7.9422 -2.4250 -1.7021 0
M  V30 62 H -8.1563 -0.7893 2.0461 0
M  V30 63 H -11.5997 -0.7746 4.4672 0
M  V30 END ATOM
M  V30 BEGIN BOND
M  V30 1 2 1 2
M  V30 2 1 2 3
M  V30 3 1 3 4
M  V30 4 2 4 5
M  V30 5 1 5 6
M  V30 6 2 6 7
M  V30 7 1 4 8
M  V30 8 2 8 9
M  V30 9 1 9 10
M  V30 10 2 10 11
M  V30 11 1 11 12
M  V30 12 3 12 13
M  V30 13 1 13 14
M  V30 14 2 14 15
M  V30 15 1 15 16
M  V30 16 2 16 17
M  V30 17 1 17 18
M  V30 18 3 18 19
M  V30 19 1 19 20
M  V30 20 2 20 21
M  V30 21 1 21 22
M  V30 22 2 22 23
M  V30 23 1 23 24
M  V30 24 1 24 25
M  V30 25 1 25 26
M  V30 26 2 26 27
M  V30 27 1 27 28
M  V30 28 2 28 29
M  V30 29 1 29 30
M  V30 30 1 26 31
M  V30 31 2 31 32
M  V30 32 1 32 33
M  V30 33 1 23 34
M  V30 34 2 34 35
M  V30 35 1 17 36
M  V30 36 1 11 37
M  V30 37 2 37 38
M  V30 38 2 3 39
M  V30 39 1 39 40
M  V30 40 2 40 41
M  V30 41 1 41 1
M  V30 42 1 7 2
M  V30 43 1 38 8
M  V30 44 1 36 14
M  V30 45 1 35 20
M  V30 46 2 33 24
M  V30 47 2 30 25
M  V30 48 1 1 42
M  V30 49 1 5 43
M  V30 50 1 6 44
M  V30 51 1 7 45
M  V30 52 1 9 46
M  V30 53 1 10 47
M  V30 54 1 15 48
M  V30 55 1 16 49
M  V30 56 1 21 50
M  V30 57 1 22 51
M  V30 58 1 27 52
M  V30 59 1 28 53
M  V30 60 1 30 54
M  V30 61 1 31 55
M  V30 62 1 32 56
M  V30 63 1 33 57
M  V30 64 1 34 58
M  V30 65 1 35 59
M  V30 66 1 37 60
M  V30 67 1 38 61
M  V30 68 1 39 62
M  V30 69 1 41 63
M  V30 END BOND
M  V30 END CTAB
M  END

$$$$
