
     RDKit          3D

  0  0  0  0  0  0  0  0  0  0999 V3000
M  V30 BEGIN CTAB
M  V30 COUNTS 63 69 0 0 0
M  V30 BEGIN ATOM
M  V30 1 C 12.7980 -0.0866 -0.3472 0
M  V30 2 C 11.7418 0.7100 0.1145 0
M  V30 3 C 10.4047 0.2556 -0.0196 0
M  V30 4 C 9.3408 1.0723 0.4455 0
M  V30 5 C 9.6358 2.3012 1.0589 0
M  V30 6 C 10.9553 2.7344 1.1908 0
M  V30 7 C 12.0043 1.9485 0.7162 0
M  V30 8 C 7.9183 0.6892 0.2941 0
M  V30 9 C 7.3577 0.5285 -0.9835 0
M  V30 10 C 6.0085 0.1902 -1.1238 0
M  V30 11 C 5.2057 0.0199 0.0109 0
M  V30 12 C 3.8162 -0.3253 -0.1339 0
M  V30 13 C 2.6522 -0.6137 -0.2553 0
M  V30 14 C 1.2657 -0.9565 -0.4004 0
M  V30 15 C 0.7765 -2.0638 -1.0801 0
M  V30 16 C -0.6209 -2.1426 -1.0596 0
M  V30 17 C -1.2112 -1.0961 -0.3639 0
M  V30 18 C -2.6225 -0.9113 -0.1777 0
M  V30 19 C -3.8078 -0.7565 -0.0224 0
M  V30 20 C -5.2231 -0.5721 0.1613 0
M  V30 21 C -5.7042 0.5774 0.8003 0
M  V30 22 C -7.0796 0.7581 0.9765 0
M  V30 23 C -7.9858 -0.2060 0.5072 0
M  V30 24 C -9.4403 -0.0227 0.7134 0
M  V30 25 C -10.3574 0.0698 -0.3660 0
M  V30 26 C -11.7438 0.1932 -0.0936 0
M  V30 27 C -12.6568 0.2792 -1.1528 0
M  V30 28 C -12.1893 0.2567 -2.4657 0
M  V30 29 N -10.8582 0.1607 -2.7142 0
M  V30 30 C -9.9430 0.0715 -1.7134 0
M  V30 31 C -12.1963 0.2384 1.2322 0
M  V30 32 C -11.2870 0.1699 2.2867 0
M  V30 33 C -9.9215 0.0425 2.0314 0
M  V30 34 C -7.4975 -1.3639 -0.1196 0
M  V30 35 C -6.1223 -1.5432 -0.2963 0
M  V30 36 S -0.0177 -0.0705 0.2279 0
M  V30 37 C 5.7567 0.1921 1.2868 0
M  V30 38 C 7.1061 0.5297 1.4280 0
M  V30 39 C 10.1898 -1.0152 -0.5913 0
M  V30 40 N 11.2403 -1.7614 -1.0238 0
M  V30 41 C 12.5224 -1.3267 -0.9211 0
M  V30 42 H 13.8264 0.2438 -0.2601 0
M  V30 43 H 8.8367 2.9366 1.4220 0
M  V30 44 H 11.1651 3.6878 1.6583 0
M  V30 45 H 13.0216 2.3054 0.8263 0
M  V30 46 H 7.9655 0.6680 -1.8691 0
M  V30 47 H 5.5910 0.0654 -2.1157 0
M  V30 48 H 1.4062 -2.7914 -1.5758 0
M  V30 49 H -1.1791 -2.9373 -1.5377 0
M  V30 50 H -5.0168 1.3327 1.1621 0
M  V30 51 H -7.4390 1.6517 1.4718 0
M  V30 52 H -13.7205 0.3684 -0.9671 0
M  V30 53 H -12.8862 0.3242 -3.2904 0
M  V30 54 H -8.8974 0.0161 -1.9811 0
M  V30 55 H -13.2530 0.3338 1.4528 0
M  V30 56 H -11.6427 0.2096 3.3083 0
M  V30 57 H -9.2357 -0.0238 2.8676 0
M  V30 58 H -8.1822 -2.1267 -0.4695 0
M  V30 59 H -5.7606 -2.4389 -0.7871 0
M  V30 60 H 5.1435 0.0669 2.1712 0
M  V30 61 H 7.5199 0.6609 2.4203 0
M  V30 62 H 9.1960 -1.4294 -0.6862 0
M  V30 63 H 13.3312 -1.9500 -1.2785 0
M  V30 END ATOM
M  V30 BEGIN BOND
M  V30 1 2 1 2
M  V30 2 1 2 3
M  V30 3 1 3 4
M  V30 4 2 4 5
M  V30 5 1 5 6
M  V30 6 2 6 7
M  V30 7 1 4 8
M  V30 8 2 8 9
M  V30 9 1 9 10
M  V30 10 2 10 11
M  V30 11 1 11 12
M  V30 12 3 12 13
M  V30 13 1 13 14
M  V30 14 2 14 15
M  V30 15 1 15 16
M  V30 16 2 16 17
M  V30 17 1 17 18
M  V30 18 3 18 19
M  V30 19 1 19 20
M  V30 20 2 20 21
M  V30 21 1 21 22
M  V30 22 2 22 23
M  V30 23 1 23 24
M  V30 24 1 24 25
M  V30 25 1 25 26
M  V30 26 2 26 27
M  V30 27 1 27 28
M  V30 28 2 28 29
M  V30 29 1 29 30
M  V30 30 1 26 31
M  V30 31 2 31 32
M  V30 32 1 32 33
M  V30 33 1 23 34
M  V30 34 2 34 35
M  V30 35 1 17 36
M  V30 36 1 11 37
M  V30 37 2 37 38
M  V30 38 2 3 39
M  V30 39 1 39 40
M  V30 40 2 40 41
M  V30 41 1 41 1
M  V30 42 1 7 2
M  V30 43 1 38 8
M  V30 44 1 36 14
M  V30 45 1 35 20
M  V30 46 2 33 24
M  V30 47 2 30 25
M  V30 48 1 1 42
M  V30 49 1 5 43
M  V30 50 1 6 44
M  V30 51 1 7 45
M  V30 52 1 9 46
M  V30 53 1 10 47
M  V30 54 1 15 48
M  V30 55 1 16 49
M  V30 56 1 21 50
M  V30 57 1 22 51
M  V30 58 1 27 52
M  V30 59 1 28 53
M  V30 60 1 30 54
M  V30 61 1 31 55
M  V30 62 1 32 56
M  V30 63 1 33 57
M  V30 64 1 34 58
M  V30 65 1 35 59
M  V30 66 1 37 60
M  V30 67 1 38 61
M  V30 68 1 39 62
M  V30 69 1 41 63
M  V30 END BOND
M  V30 END CTAB
M  END

$$$$
