
     RDKit          3D

  0  0  0  0  0  0  0  0  0  0999 V3000
M  V30 BEGIN CTAB
M  V30 COUNTS 63 69 0 0 0
M  V30 BEGIN ATOM
M  V30 1 C -12.6959 0.4037 -0.3960 0
M  V30 2 C -11.6237 1.2634 -0.1231 0
M  V30 3 C -10.3021 0.7503 -0.0785 0
M  V30 4 C -9.2228 1.6277 0.2044 0
M  V30 5 C -9.4818 2.9939 0.4029 0
M  V30 6 C -10.7854 3.4878 0.3505 0
M  V30 7 C -11.8534 2.6287 0.0959 0
M  V30 8 C -7.8236 1.1569 0.3177 0
M  V30 9 C -6.8391 1.6550 -0.5505 0
M  V30 10 C -5.5128 1.2286 -0.4313 0
M  V30 11 C -5.1577 0.3079 0.5626 0
M  V30 12 C -3.7925 -0.1302 0.6851 0
M  V30 13 C -2.6489 -0.4970 0.7877 0
M  V30 14 C -1.2868 -0.9335 0.9098 0
M  V30 15 C -0.8766 -2.1665 1.3987 0
M  V30 16 C 0.5152 -2.3158 1.4023 0
M  V30 17 C 1.1801 -1.1982 0.9160 0
M  V30 18 C 2.6043 -1.0606 0.8013 0
M  V30 19 C 3.8003 -0.9447 0.7050 0
M  V30 20 C 5.2279 -0.8058 0.5900 0
M  V30 21 C 6.0756 -1.7278 1.2168 0
M  V30 22 C 7.4629 -1.5927 1.1061 0
M  V30 23 C 8.0142 -0.5392 0.3595 0
M  V30 24 C 9.4836 -0.3848 0.2634 0
M  V30 25 C 10.1764 -0.4354 -0.9745 0
M  V30 26 C 11.5796 -0.2296 -0.9964 0
M  V30 27 C 12.2710 -0.2723 -2.2143 0
M  V30 28 C 11.5716 -0.5317 -3.3919 0
M  V30 29 N 10.2321 -0.7491 -3.3562 0
M  V30 30 C 9.5269 -0.7117 -2.1949 0
M  V30 31 C 12.2723 0.0059 0.1992 0
M  V30 32 C 11.5877 0.0314 1.4133 0
M  V30 33 C 10.2068 -0.1636 1.4470 0
M  V30 34 C 7.1600 0.3906 -0.2558 0
M  V30 35 C 5.7729 0.2545 -0.1448 0
M  V30 36 S 0.0596 -0.0229 0.4803 0
M  V30 37 C -6.1334 -0.1818 1.4398 0
M  V30 38 C -7.4597 0.2444 1.3216 0
M  V30 39 C -10.1130 -0.6207 -0.3475 0
M  V30 40 N -11.1776 -1.4228 -0.6124 0
M  V30 41 C -12.4489 -0.9470 -0.6356 0
M  V30 42 H -13.7139 0.7737 -0.4290 0
M  V30 43 H -8.6698 3.6787 0.6168 0
M  V30 44 H -10.9691 4.5419 0.5139 0
M  V30 45 H -12.8584 3.0326 0.0626 0
M  V30 46 H -7.1008 2.3678 -1.3230 0
M  V30 47 H -4.7650 1.6170 -1.1123 0
M  V30 48 H -1.5583 -2.9339 1.7421 0
M  V30 49 H 1.0167 -3.2103 1.7487 0
M  V30 50 H 5.6644 -2.5492 1.7912 0
M  V30 51 H 8.1077 -2.3121 1.5960 0
M  V30 52 H 13.3420 -0.1122 -2.2544 0
M  V30 53 H 12.0968 -0.5689 -4.3370 0
M  V30 54 H 8.4657 -0.9122 -2.2354 0
M  V30 55 H 13.3445 0.1628 0.1952 0
M  V30 56 H 12.1293 0.2090 2.3335 0
M  V30 57 H 9.6948 -0.1248 2.4011 0
M  V30 58 H 7.5693 1.2207 -0.8186 0
M  V30 59 H 5.1263 0.9769 -0.6285 0
M  V30 60 H -5.8683 -0.8896 2.2161 0
M  V30 61 H -8.2032 -0.1341 2.0125 0
M  V30 62 H -9.1259 -1.0606 -0.3631 0
M  V30 63 H -13.2698 -1.6184 -0.8494 0
M  V30 END ATOM
M  V30 BEGIN BOND
M  V30 1 2 1 2
M  V30 2 1 2 3
M  V30 3 1 3 4
M  V30 4 2 4 5
M  V30 5 1 5 6
M  V30 6 2 6 7
M  V30 7 1 4 8
M  V30 8 2 8 9
M  V30 9 1 9 10
M  V30 10 2 10 11
M  V30 11 1 11 12
M  V30 12 3 12 13
M  V30 13 1 13 14
M  V30 14 2 14 15
M  V30 15 1 15 16
M  V30 16 2 16 17
M  V30 17 1 17 18
M  V30 18 3 18 19
M  V30 19 1 19 20
M  V30 20 2 20 21
M  V30 21 1 21 22
M  V30 22 2 22 23
M  V30 23 1 23 24
M  V30 24 1 24 25
M  V30 25 1 25 26
M  V30 26 2 26 27
M  V30 27 1 27 28
M  V30 28 2 28 29
M  V30 29 1 29 30
M  V30 30 1 26 31
M  V30 31 2 31 32
M  V30 32 1 32 33
M  V30 33 1 23 34
M  V30 34 2 34 35
M  V30 35 1 17 36
M  V30 36 1 11 37
M  V30 37 2 37 38
M  V30 38 2 3 39
M  V30 39 1 39 40
M  V30 40 2 40 41
M  V30 41 1 41 1
M  V30 42 1 7 2
M  V30 43 1 38 8
M  V30 44 1 36 14
M  V30 45 1 35 20
M  V30 46 2 33 24
M  V30 47 2 30 25
M  V30 48 1 1 42
M  V30 49 1 5 43
M  V30 50 1 6 44
M  V30 51 1 7 45
M  V30 52 1 9 46
M  V30 53 1 10 47
M  V30 54 1 15 48
M  V30 55 1 16 49
M  V30 56 1 21 50
M  V30 57 1 22 51
M  V30 58 1 27 52
M  V30 59 1 28 53
M  V30 60 1 30 54
M  V30 61 1 31 55
M  V30 62 1 32 56
M  V30 63 1 33 57
M  V30 64 1 34 58
M  V30 65 1 35 59
M  V30 66 1 37 60
M  V30 67 1 38 61
M  V30 68 1 39 62
M  V30 69 1 41 63
M  V30 END BOND
M  V30 END CTAB
M  END

$$$$
