
     RDKit          3D

  0  0  0  0  0  0  0  0  0  0999 V3000
M  V30 BEGIN CTAB
M  V30 COUNTS 63 69 0 0 0
M  V30 BEGIN ATOM
M  V30 1 C -12.6437 -0.2434 -0.7719 0
M  V30 2 C -11.6483 -0.4648 0.1890 0
M  V30 3 C -10.2833 -0.4625 -0.1963 0
M  V30 4 C -9.2820 -0.6931 0.7830 0
M  V30 5 C -9.6617 -0.8874 2.1213 0
M  V30 6 C -11.0073 -0.8816 2.4891 0
M  V30 7 C -11.9979 -0.6784 1.5294 0
M  V30 8 C -7.8411 -0.7553 0.4481 0
M  V30 9 C -6.9432 0.1585 1.0225 0
M  V30 10 C -5.5790 0.0888 0.7239 0
M  V30 11 C -5.0996 -0.9005 -0.1437 0
M  V30 12 C -3.6956 -0.9713 -0.4512 0
M  V30 13 C -2.5195 -1.0300 -0.7090 0
M  V30 14 C -1.1189 -1.0989 -1.0160 0
M  V30 15 C -0.5686 -1.7072 -2.1361 0
M  V30 16 C 0.8277 -1.6171 -2.1747 0
M  V30 17 C 1.3560 -0.9392 -1.0843 0
M  V30 18 C 2.7508 -0.6896 -0.8544 0
M  V30 19 C 3.9219 -0.4789 -0.6615 0
M  V30 20 C 5.3197 -0.2262 -0.4315 0
M  V30 21 C 5.7621 0.1672 0.8377 0
M  V30 22 C 7.1199 0.4145 1.0612 0
M  V30 23 C 8.0459 0.2800 0.0137 0
M  V30 24 C 9.4872 0.5206 0.2523 0
M  V30 25 C 9.9930 1.7849 0.6530 0
M  V30 26 C 11.3801 1.9302 0.9113 0
M  V30 27 C 11.8875 3.1730 1.3125 0
M  V30 28 C 11.0228 4.2589 1.4394 0
M  V30 29 N 9.7005 4.1136 1.1682 0
M  V30 30 C 9.1712 2.9233 0.7807 0
M  V30 31 C 12.2406 0.8348 0.7556 0
M  V30 32 C 11.7393 -0.3977 0.3397 0
M  V30 33 C 10.3761 -0.5545 0.0883 0
M  V30 34 C 7.5991 -0.1281 -1.2531 0
M  V30 35 C 6.2410 -0.3755 -1.4756 0
M  V30 36 S 0.1087 -0.4481 -0.0696 0
M  V30 37 C -5.9891 -1.8230 -0.7086 0
M  V30 38 C -7.3533 -1.7543 -0.4103 0
M  V30 39 C -9.9753 -0.2010 -1.5470 0
M  V30 40 N -10.9683 0.0132 -2.4498 0
M  V30 41 C -12.2789 -0.0086 -2.0965 0
M  V30 42 H -13.6926 -0.2466 -0.5002 0
M  V30 43 H -8.9107 -1.0617 2.8827 0
M  V30 44 H -11.2838 -1.0411 3.5233 0
M  V30 45 H -13.0372 -0.6807 1.8361 0
M  V30 46 H -7.3014 0.9283 1.6951 0
M  V30 47 H -4.8988 0.8047 1.1696 0
M  V30 48 H -1.1544 -2.1997 -2.9015 0
M  V30 49 H 1.4290 -2.0329 -2.9729 0
M  V30 50 H 5.0586 0.2800 1.6538 0
M  V30 51 H 7.4509 0.7091 2.0496 0
M  V30 52 H 12.9428 3.3046 1.5204 0
M  V30 53 H 11.4052 5.2232 1.7464 0
M  V30 54 H 8.1135 2.8817 0.5625 0
M  V30 55 H 13.3024 0.9340 0.9482 0
M  V30 56 H 12.4100 -1.2384 0.2166 0
M  V30 57 H 10.0080 -1.5259 -0.2200 0
M  V30 58 H 8.3017 -0.2471 -2.0689 0
M  V30 59 H 5.9098 -0.6834 -2.4602 0
M  V30 60 H -5.6279 -2.5961 -1.3762 0
M  V30 61 H -8.0299 -2.4795 -0.8459 0
M  V30 62 H -8.9523 -0.1513 -1.8919 0
M  V30 63 H -13.0399 0.1657 -2.8454 0
M  V30 END ATOM
M  V30 BEGIN BOND
M  V30 1 2 1 2
M  V30 2 1 2 3
M  V30 3 1 3 4
M  V30 4 2 4 5
M  V30 5 1 5 6
M  V30 6 2 6 7
M  V30 7 1 4 8
M  V30 8 2 8 9
M  V30 9 1 9 10
M  V30 10 2 10 11
M  V30 11 1 11 12
M  V30 12 3 12 13
M  V30 13 1 13 14
M  V30 14 2 14 15
M  V30 15 1 15 16
M  V30 16 2 16 17
M  V30 17 1 17 18
M  V30 18 3 18 19
M  V30 19 1 19 20
M  V30 20 2 20 21
M  V30 21 1 21 22
M  V30 22 2 22 23
M  V30 23 1 23 24
M  V30 24 1 24 25
M  V30 25 1 25 26
M  V30 26 2 26 27
M  V30 27 1 27 28
M  V30 28 2 28 29
M  V30 29 1 29 30
M  V30 30 1 26 31
M  V30 31 2 31 32
M  V30 32 1 32 33
M  V30 33 1 23 34
M  V30 34 2 34 35
M  V30 35 1 17 36
M  V30 36 1 11 37
M  V30 37 2 37 38
M  V30 38 2 3 39
M  V30 39 1 39 40
M  V30 40 2 40 41
M  V30 41 1 41 1
M  V30 42 1 7 2
M  V30 43 1 38 8
M  V30 44 1 36 14
M  V30 45 1 35 20
M  V30 46 2 33 24
M  V30 47 2 30 25
M  V30 48 1 1 42
M  V30 49 1 5 43
M  V30 50 1 6 44
M  V30 51 1 7 45
M  V30 52 1 9 46
M  V30 53 1 10 47
M  V30 54 1 15 48
M  V30 55 1 16 49
M  V30 56 1 21 50
M  V30 57 1 22 51
M  V30 58 1 27 52
M  V30 59 1 28 53
M  V30 60 1 30 54
M  V30 61 1 31 55
M  V30 62 1 32 56
M  V30 63 1 33 57
M  V30 64 1 34 58
M  V30 65 1 35 59
M  V30 66 1 37 60
M  V30 67 1 38 61
M  V30 68 1 39 62
M  V30 69 1 41 63
M  V30 END BOND
M  V30 END CTAB
M  END

$$$$
