
     RDKit          3D

  0  0  0  0  0  0  0  0  0  0999 V3000
M  V30 BEGIN CTAB
M  V30 COUNTS 63 69 0 0 0
M  V30 BEGIN ATOM
M  V30 1 C -12.0910 2.4698 0.8832 0
M  V30 2 C -11.4628 1.2197 0.9584 0
M  V30 3 C -10.0848 1.1029 0.6433 0
M  V30 4 C -9.4555 -0.1666 0.7276 0
M  V30 5 C -10.2183 -1.2888 1.0907 0
M  V30 6 C -11.5744 -1.1623 1.3926 0
M  V30 7 C -12.1945 0.0849 1.3343 0
M  V30 8 C -8.0113 -0.3578 0.4632 0
M  V30 9 C -7.5902 -1.2038 -0.5751 0
M  V30 10 C -6.2269 -1.4032 -0.8129 0
M  V30 11 C -5.2732 -0.7662 -0.0090 0
M  V30 12 C -3.8702 -0.9724 -0.2537 0
M  V30 13 C -2.6950 -1.1452 -0.4587 0
M  V30 14 C -1.2954 -1.3512 -0.7026 0
M  V30 15 C -0.7601 -2.2650 -1.6004 0
M  V30 16 C 0.6393 -2.2468 -1.6275 0
M  V30 17 C 1.1850 -1.3189 -0.7506 0
M  V30 18 C 2.5871 -1.0762 -0.5610 0
M  V30 19 C 3.7644 -0.8725 -0.4016 0
M  V30 20 C 5.1699 -0.6292 -0.2112 0
M  V30 21 C 5.6992 0.6464 -0.4438 0
M  V30 22 C 7.0645 0.8833 -0.2579 0
M  V30 23 C 7.9144 -0.1569 0.1527 0
M  V30 24 C 9.3566 0.0963 0.3728 0
M  V30 25 C 10.2253 0.5147 -0.6689 0
M  V30 26 C 11.5859 0.7867 -0.3744 0
M  V30 27 C 12.4493 1.2057 -1.3952 0
M  V30 28 C 11.9631 1.3365 -2.6949 0
M  V30 29 N 10.6644 1.0519 -2.9695 0
M  V30 30 C 9.7963 0.6470 -2.0054 0
M  V30 31 C 12.0656 0.6266 0.9329 0
M  V30 32 C 11.2113 0.1933 1.9457 0
M  V30 33 C 9.8698 -0.0714 1.6696 0
M  V30 34 C 7.3764 -1.4304 0.3974 0
M  V30 35 C 6.0108 -1.6663 0.2117 0
M  V30 36 S -0.0507 -0.5179 0.0608 0
M  V30 37 C -5.6881 0.0681 1.0365 0
M  V30 38 C -7.0511 0.2680 1.2751 0
M  V30 39 C -9.3981 2.2623 0.2287 0
M  V30 40 N -10.0425 3.4571 0.1640 0
M  V30 41 C -11.3556 3.5848 0.4844 0
M  V30 42 H -13.1413 2.5824 1.1249 0
M  V30 43 H -9.7552 -2.2661 1.1571 0
M  V30 44 H -12.1463 -2.0356 1.6788 0
M  V30 45 H -13.2482 0.1613 1.5757 0
M  V30 46 H -8.3178 -1.7028 -1.2035 0
M  V30 47 H -5.9167 -2.0540 -1.6217 0
M  V30 48 H -1.3586 -2.9239 -2.2162 0
M  V30 49 H 1.2304 -2.8902 -2.2663 0
M  V30 50 H 5.0566 1.4573 -0.7651 0
M  V30 51 H 7.4600 1.8767 -0.4314 0
M  V30 52 H 13.4908 1.4244 -1.1909 0
M  V30 53 H 12.6225 1.6571 -3.4904 0
M  V30 54 H 8.7806 0.4190 -2.2960 0
M  V30 55 H 13.1035 0.8295 1.1696 0
M  V30 56 H 11.5893 0.0671 2.9521 0
M  V30 57 H 9.2219 -0.3929 2.4764 0
M  V30 58 H 8.0159 -2.2409 0.7254 0
M  V30 59 H 5.6108 -2.6557 0.3986 0
M  V30 60 H -4.9587 0.5609 1.6682 0
M  V30 61 H -7.3594 0.9078 2.0930 0
M  V30 62 H -8.3567 2.2277 -0.0582 0
M  V30 63 H -11.8320 4.5539 0.4211 0
M  V30 END ATOM
M  V30 BEGIN BOND
M  V30 1 2 1 2
M  V30 2 1 2 3
M  V30 3 1 3 4
M  V30 4 2 4 5
M  V30 5 1 5 6
M  V30 6 2 6 7
M  V30 7 1 4 8
M  V30 8 2 8 9
M  V30 9 1 9 10
M  V30 10 2 10 11
M  V30 11 1 11 12
M  V30 12 3 12 13
M  V30 13 1 13 14
M  V30 14 2 14 15
M  V30 15 1 15 16
M  V30 16 2 16 17
M  V30 17 1 17 18
M  V30 18 3 18 19
M  V30 19 1 19 20
M  V30 20 2 20 21
M  V30 21 1 21 22
M  V30 22 2 22 23
M  V30 23 1 23 24
M  V30 24 1 24 25
M  V30 25 1 25 26
M  V30 26 2 26 27
M  V30 27 1 27 28
M  V30 28 2 28 29
M  V30 29 1 29 30
M  V30 30 1 26 31
M  V30 31 2 31 32
M  V30 32 1 32 33
M  V30 33 1 23 34
M  V30 34 2 34 35
M  V30 35 1 17 36
M  V30 36 1 11 37
M  V30 37 2 37 38
M  V30 38 2 3 39
M  V30 39 1 39 40
M  V30 40 2 40 41
M  V30 41 1 41 1
M  V30 42 1 7 2
M  V30 43 1 38 8
M  V30 44 1 36 14
M  V30 45 1 35 20
M  V30 46 2 33 24
M  V30 47 2 30 25
M  V30 48 1 1 42
M  V30 49 1 5 43
M  V30 50 1 6 44
M  V30 51 1 7 45
M  V30 52 1 9 46
M  V30 53 1 10 47
M  V30 54 1 15 48
M  V30 55 1 16 49
M  V30 56 1 21 50
M  V30 57 1 22 51
M  V30 58 1 27 52
M  V30 59 1 28 53
M  V30 60 1 30 54
M  V30 61 1 31 55
M  V30 62 1 32 56
M  V30 63 1 33 57
M  V30 64 1 34 58
M  V30 65 1 35 59
M  V30 66 1 37 60
M  V30 67 1 38 61
M  V30 68 1 39 62
M  V30 69 1 41 63
M  V30 END BOND
M  V30 END CTAB
M  END

$$$$
