
     RDKit          3D

  0  0  0  0  0  0  0  0  0  0999 V3000
M  V30 BEGIN CTAB
M  V30 COUNTS 63 69 0 0 0
M  V30 BEGIN ATOM
M  V30 1 C 12.3722 1.5108 -0.9005 0
M  V30 2 C 11.4801 0.5072 -1.3003 0
M  V30 3 C 10.1603 0.4893 -0.7811 0
M  V30 4 C 9.2615 -0.5279 -1.1965 0
M  V30 5 C 9.7080 -1.5166 -2.0889 0
M  V30 6 C 11.0103 -1.4916 -2.5880 0
M  V30 7 C 11.8918 -0.4826 -2.2032 0
M  V30 8 C 7.8538 -0.5811 -0.7400 0
M  V30 9 C 7.3847 -1.6963 -0.0275 0
M  V30 10 C 6.0503 -1.7587 0.3854 0
M  V30 11 C 5.1713 -0.7116 0.0812 0
M  V30 12 C 3.7979 -0.7763 0.5060 0
M  V30 13 C 2.6477 -0.8300 0.8622 0
M  V30 14 C 1.2781 -0.8937 1.2870 0
M  V30 15 C 0.8339 -1.4045 2.4992 0
M  V30 16 C -0.5570 -1.3379 2.6419 0
M  V30 17 C -1.1871 -0.7755 1.5398 0
M  V30 18 C -2.6025 -0.5821 1.3987 0
M  V30 19 C -3.7911 -0.4210 1.2800 0
M  V30 20 C -5.2102 -0.2302 1.1378 0
M  V30 21 C -6.0962 -1.2457 1.5186 0
M  V30 22 C -7.4751 -1.0620 1.3789 0
M  V30 23 C -7.9796 0.1360 0.8485 0
M  V30 24 C -9.4412 0.3364 0.7218 0
M  V30 25 C -10.0742 0.5635 -0.5282 0
M  V30 26 C -11.4724 0.7976 -0.5687 0
M  V30 27 C -12.1047 1.0284 -1.7975 0
M  V30 28 C -11.3527 1.0100 -2.9708 0
M  V30 29 N -10.0186 0.7628 -2.9222 0
M  V30 30 C -9.3697 0.5390 -1.7492 0
M  V30 31 C -12.2194 0.7876 0.6173 0
M  V30 32 C -11.5944 0.5394 1.8381 0
M  V30 33 C -10.2189 0.3143 1.8915 0
M  V30 34 C -7.0876 1.1570 0.4820 0
M  V30 35 C -5.7088 0.9721 0.6210 0
M  V30 36 S -0.0368 -0.3583 0.3866 0
M  V30 37 C 5.6308 0.3966 -0.6413 0
M  V30 38 C 6.9649 0.4598 -1.0547 0
M  V30 39 C 9.8028 1.4787 0.1574 0
M  V30 40 N 10.6971 2.4342 0.5238 0
M  V30 41 C 11.9554 2.4745 0.0164 0
M  V30 42 H 13.3832 1.5462 -1.2890 0
M  V30 43 H 9.0365 -2.3020 -2.4148 0
M  V30 44 H 11.3358 -2.2555 -3.2821 0
M  V30 45 H 12.8979 -0.4801 -2.6054 0
M  V30 46 H 8.0541 -2.5131 0.2134 0
M  V30 47 H 5.7040 -2.6227 0.9399 0
M  V30 48 H 1.4906 -1.8139 3.2558 0
M  V30 49 H -1.0825 -1.6903 3.5199 0
M  V30 50 H -5.7211 -2.1784 1.9230 0
M  V30 51 H -8.1499 -1.8550 1.6768 0
M  V30 52 H -13.1708 1.2152 -1.8504 0
M  V30 53 H -11.8324 1.1845 -3.9246 0
M  V30 54 H -8.3098 0.3298 -1.7840 0
M  V30 55 H -13.2885 0.9629 0.5988 0
M  V30 56 H -12.1781 0.5270 2.7496 0
M  V30 57 H -9.7536 0.1381 2.8540 0
M  V30 58 H -7.4614 2.0953 0.0905 0
M  V30 59 H -5.0327 1.7663 0.3282 0
M  V30 60 H 4.9578 1.2093 -0.8876 0
M  V30 61 H 7.3056 1.3178 -1.6214 0
M  V30 62 H 8.8235 1.4943 0.6142 0
M  V30 63 H 12.6372 3.2526 0.3326 0
M  V30 END ATOM
M  V30 BEGIN BOND
M  V30 1 2 1 2
M  V30 2 1 2 3
M  V30 3 1 3 4
M  V30 4 2 4 5
M  V30 5 1 5 6
M  V30 6 2 6 7
M  V30 7 1 4 8
M  V30 8 2 8 9
M  V30 9 1 9 10
M  V30 10 2 10 11
M  V30 11 1 11 12
M  V30 12 3 12 13
M  V30 13 1 13 14
M  V30 14 2 14 15
M  V30 15 1 15 16
M  V30 16 2 16 17
M  V30 17 1 17 18
M  V30 18 3 18 19
M  V30 19 1 19 20
M  V30 20 2 20 21
M  V30 21 1 21 22
M  V30 22 2 22 23
M  V30 23 1 23 24
M  V30 24 1 24 25
M  V30 25 1 25 26
M  V30 26 2 26 27
M  V30 27 1 27 28
M  V30 28 2 28 29
M  V30 29 1 29 30
M  V30 30 1 26 31
M  V30 31 2 31 32
M  V30 32 1 32 33
M  V30 33 1 23 34
M  V30 34 2 34 35
M  V30 35 1 17 36
M  V30 36 1 11 37
M  V30 37 2 37 38
M  V30 38 2 3 39
M  V30 39 1 39 40
M  V30 40 2 40 41
M  V30 41 1 41 1
M  V30 42 1 7 2
M  V30 43 1 38 8
M  V30 44 1 36 14
M  V30 45 1 35 20
M  V30 46 2 33 24
M  V30 47 2 30 25
M  V30 48 1 1 42
M  V30 49 1 5 43
M  V30 50 1 6 44
M  V30 51 1 7 45
M  V30 52 1 9 46
M  V30 53 1 10 47
M  V30 54 1 15 48
M  V30 55 1 16 49
M  V30 56 1 21 50
M  V30 57 1 22 51
M  V30 58 1 27 52
M  V30 59 1 28 53
M  V30 60 1 30 54
M  V30 61 1 31 55
M  V30 62 1 32 56
M  V30 63 1 33 57
M  V30 64 1 34 58
M  V30 65 1 35 59
M  V30 66 1 37 60
M  V30 67 1 38 61
M  V30 68 1 39 62
M  V30 69 1 41 63
M  V30 END BOND
M  V30 END CTAB
M  END

$$$$
