
     RDKit          3D

  0  0  0  0  0  0  0  0  0  0999 V3000
M  V30 BEGIN CTAB
M  V30 COUNTS 63 69 0 0 0
M  V30 BEGIN ATOM
M  V30 1 C -12.4061 -1.4835 0.2256 0
M  V30 2 C -11.5084 -0.6318 0.8827 0
M  V30 3 C -10.1783 -0.5061 0.4064 0
M  V30 4 C -9.2740 0.3542 1.0822 0
M  V30 5 C -9.7242 1.0901 2.1908 0
M  V30 6 C -11.0367 0.9628 2.6461 0
M  V30 7 C -11.9244 0.1021 2.0021 0
M  V30 8 C -7.8572 0.4964 0.6763 0
M  V30 9 C -6.9879 -0.6054 0.7327 0
M  V30 10 C -5.6451 -0.4630 0.3702 0
M  V30 11 C -5.1574 0.7834 -0.0419 0
M  V30 12 C -3.7746 0.9300 -0.4125 0
M  V30 13 C -2.6161 1.0532 -0.7220 0
M  V30 14 C -1.2361 1.2003 -1.0890 0
M  V30 15 C -0.7626 1.9391 -2.1650 0
M  V30 16 C 0.6324 1.9065 -2.2770 0
M  V30 17 C 1.2365 1.1424 -1.2877 0
M  V30 18 C 2.6490 0.9309 -1.1440 0
M  V30 19 C 3.8349 0.7535 -1.0211 0
M  V30 20 C 5.2504 0.5418 -0.8717 0
M  V30 21 C 5.8489 0.6664 0.3882 0
M  V30 22 C 7.2239 0.4602 0.5347 0
M  V30 23 C 8.0109 0.1175 -0.5770 0
M  V30 24 C 9.4707 -0.0806 -0.4285 0
M  V30 25 C 10.0222 -1.1007 0.3901 0
M  V30 26 C 11.4306 -1.1990 0.5269 0
M  V30 27 C 11.9836 -2.1987 1.3381 0
M  V30 28 C 11.1411 -3.0969 1.9913 0
M  V30 29 N 9.7955 -3.0074 1.8349 0
M  V30 30 C 9.2225 -2.0491 1.0600 0
M  V30 31 C 12.2653 -0.3036 -0.1558 0
M  V30 32 C 11.7165 0.6807 -0.9765 0
M  V30 33 C 10.3326 0.7915 -1.1139 0
M  V30 34 C 7.4086 0.0076 -1.8404 0
M  V30 35 C 6.0332 0.2142 -1.9860 0
M  V30 36 S 0.0582 0.5051 -0.2718 0
M  V30 37 C -6.0171 1.8880 -0.0871 0
M  V30 38 C -7.3603 1.7465 0.2747 0
M  V30 39 C -9.8155 -1.2295 -0.7481 0
M  V30 40 N -10.7154 -2.0429 -1.3610 0
M  V30 41 C -11.9843 -2.1883 -0.9007 0
M  V30 42 H -13.4250 -1.5987 0.5761 0
M  V30 43 H -9.0487 1.7540 2.7170 0
M  V30 44 H -11.3657 1.5304 3.5071 0
M  V30 45 H -12.9384 0.0155 2.3743 0
M  V30 46 H -7.3506 -1.5722 1.0596 0
M  V30 47 H -4.9873 -1.3227 0.4147 0
M  V30 48 H -1.4016 2.4854 -2.8466 0
M  V30 49 H 1.1792 2.4253 -3.0538 0
M  V30 50 H 5.2536 0.9253 1.2558 0
M  V30 51 H 7.6764 0.5688 1.5128 0
M  V30 52 H 13.0565 -2.2879 1.4613 0
M  V30 53 H 11.5584 -3.8736 2.6180 0
M  V30 54 H 8.1460 -2.0462 0.9640 0
M  V30 55 H 13.3428 -0.3699 -0.0605 0
M  V30 56 H 12.3669 1.3660 -1.5047 0
M  V30 57 H 9.9293 1.5742 -1.7453 0
M  V30 58 H 8.0030 -0.2452 -2.7099 0
M  V30 59 H 5.5810 0.1195 -2.9659 0
M  V30 60 H -5.6490 2.8577 -0.4002 0
M  V30 61 H -8.0148 2.6087 0.2362 0
M  V30 62 H -8.8274 -1.1455 -1.1779 0
M  V30 63 H -12.6705 -2.8467 -1.4163 0
M  V30 END ATOM
M  V30 BEGIN BOND
M  V30 1 2 1 2
M  V30 2 1 2 3
M  V30 3 1 3 4
M  V30 4 2 4 5
M  V30 5 1 5 6
M  V30 6 2 6 7
M  V30 7 1 4 8
M  V30 8 2 8 9
M  V30 9 1 9 10
M  V30 10 2 10 11
M  V30 11 1 11 12
M  V30 12 3 12 13
M  V30 13 1 13 14
M  V30 14 2 14 15
M  V30 15 1 15 16
M  V30 16 2 16 17
M  V30 17 1 17 18
M  V30 18 3 18 19
M  V30 19 1 19 20
M  V30 20 2 20 21
M  V30 21 1 21 22
M  V30 22 2 22 23
M  V30 23 1 23 24
M  V30 24 1 24 25
M  V30 25 1 25 26
M  V30 26 2 26 27
M  V30 27 1 27 28
M  V30 28 2 28 29
M  V30 29 1 29 30
M  V30 30 1 26 31
M  V30 31 2 31 32
M  V30 32 1 32 33
M  V30 33 1 23 34
M  V30 34 2 34 35
M  V30 35 1 17 36
M  V30 36 1 11 37
M  V30 37 2 37 38
M  V30 38 2 3 39
M  V30 39 1 39 40
M  V30 40 2 40 41
M  V30 41 1 41 1
M  V30 42 1 7 2
M  V30 43 1 38 8
M  V30 44 1 36 14
M  V30 45 1 35 20
M  V30 46 2 33 24
M  V30 47 2 30 25
M  V30 48 1 1 42
M  V30 49 1 5 43
M  V30 50 1 6 44
M  V30 51 1 7 45
M  V30 52 1 9 46
M  V30 53 1 10 47
M  V30 54 1 15 48
M  V30 55 1 16 49
M  V30 56 1 21 50
M  V30 57 1 22 51
M  V30 58 1 27 52
M  V30 59 1 28 53
M  V30 60 1 30 54
M  V30 61 1 31 55
M  V30 62 1 32 56
M  V30 63 1 33 57
M  V30 64 1 34 58
M  V30 65 1 35 59
M  V30 66 1 37 60
M  V30 67 1 38 61
M  V30 68 1 39 62
M  V30 69 1 41 63
M  V30 END BOND
M  V30 END CTAB
M  END

$$$$
