
     RDKit          3D

  0  0  0  0  0  0  0  0  0  0999 V3000
M  V30 BEGIN CTAB
M  V30 COUNTS 63 69 0 0 0
M  V30 BEGIN ATOM
M  V30 1 C 12.1164 1.8872 1.8119 0
M  V30 2 C 11.4942 0.7209 1.3474 0
M  V30 3 C 10.0928 0.7082 1.1294 0
M  V30 4 C 9.4720 -0.4762 0.6532 0
M  V30 5 C 10.2540 -1.6230 0.4379 0
M  V30 6 C 11.6308 -1.5999 0.6616 0
M  V30 7 C 12.2515 -0.4339 1.1074 0
M  V30 8 C 8.0237 -0.5504 0.3544 0
M  V30 9 C 7.2062 -1.4576 1.0470 0
M  V30 10 C 5.8423 -1.5450 0.7514 0
M  V30 11 C 5.2862 -0.7331 -0.2451 0
M  V30 12 C 3.8825 -0.8238 -0.5489 0
M  V30 13 C 2.7067 -0.8999 -0.8030 0
M  V30 14 C 1.3063 -0.9908 -1.1052 0
M  V30 15 C 0.7617 -1.6087 -2.2230 0
M  V30 16 C -0.6362 -1.5439 -2.2548 0
M  V30 17 C -1.1715 -0.8759 -1.1617 0
M  V30 18 C -2.5698 -0.6552 -0.9233 0
M  V30 19 C -3.7438 -0.4700 -0.7227 0
M  V30 20 C -5.1454 -0.2492 -0.4830 0
M  V30 21 C -6.0842 -1.2133 -0.8708 0
M  V30 22 C -7.4460 -0.9996 -0.6370 0
M  V30 23 C -7.8814 0.1857 -0.0220 0
M  V30 24 C -9.3207 0.4047 0.2480 0
M  V30 25 C -10.2879 0.4819 -0.7881 0
M  V30 26 C -11.6566 0.6431 -0.4528 0
M  V30 27 C -12.6190 0.7144 -1.4686 0
M  V30 28 C -12.2171 0.6405 -2.8013 0
M  V30 29 N -10.9019 0.5086 -3.1111 0
M  V30 30 C -9.9405 0.4320 -2.1536 0
M  V30 31 C -12.0423 0.7404 0.8912 0
M  V30 32 C -11.0836 0.6869 1.9019 0
M  V30 33 C -9.7351 0.5223 1.5849 0
M  V30 34 C -6.9351 1.1430 0.3770 0
M  V30 35 C -5.5734 0.9282 0.1431 0
M  V30 36 S 0.0715 -0.3630 -0.1525 0
M  V30 37 C 6.1000 0.1639 -0.9481 0
M  V30 38 C 7.4639 0.2518 -0.6535 0
M  V30 39 C 9.3644 1.8786 1.4248 0
M  V30 40 N 10.0025 2.9897 1.8779 0
M  V30 41 C 11.3462 3.0202 2.0690 0
M  V30 42 H 13.1864 1.9204 1.9797 0
M  V30 43 H 9.7965 -2.5367 0.0775 0
M  V30 44 H 12.2206 -2.4897 0.4829 0
M  V30 45 H 13.3225 -0.4369 1.2720 0
M  V30 46 H 7.6242 -2.0913 1.8195 0
M  V30 47 H 5.2225 -2.2453 1.2984 0
M  V30 48 H 1.3526 -2.0911 -2.9909 0
M  V30 49 H -1.2337 -1.9712 -3.0498 0
M  V30 50 H -5.7634 -2.1304 -1.3503 0
M  V30 51 H -8.1613 -1.7574 -0.9326 0
M  V30 52 H -13.6705 0.8316 -1.2345 0
M  V30 53 H -12.9522 0.6968 -3.5929 0
M  V30 54 H -8.9106 0.3464 -2.4699 0
M  V30 55 H -13.0847 0.8657 1.1596 0
M  V30 56 H -11.3876 0.7675 2.9376 0
M  V30 57 H -9.0103 0.4688 2.3885 0
M  V30 58 H -7.2532 2.0575 0.8626 0
M  V30 59 H -4.8551 1.6785 0.4511 0
M  V30 60 H 5.6812 0.7922 -1.7250 0
M  V30 61 H 8.0847 0.9424 -1.2110 0
M  V30 62 H 8.2901 1.9168 1.3126 0
M  V30 63 H 11.8169 3.9249 2.4301 0
M  V30 END ATOM
M  V30 BEGIN BOND
M  V30 1 2 1 2
M  V30 2 1 2 3
M  V30 3 1 3 4
M  V30 4 2 4 5
M  V30 5 1 5 6
M  V30 6 2 6 7
M  V30 7 1 4 8
M  V30 8 2 8 9
M  V30 9 1 9 10
M  V30 10 2 10 11
M  V30 11 1 11 12
M  V30 12 3 12 13
M  V30 13 1 13 14
M  V30 14 2 14 15
M  V30 15 1 15 16
M  V30 16 2 16 17
M  V30 17 1 17 18
M  V30 18 3 18 19
M  V30 19 1 19 20
M  V30 20 2 20 21
M  V30 21 1 21 22
M  V30 22 2 22 23
M  V30 23 1 23 24
M  V30 24 1 24 25
M  V30 25 1 25 26
M  V30 26 2 26 27
M  V30 27 1 27 28
M  V30 28 2 28 29
M  V30 29 1 29 30
M  V30 30 1 26 31
M  V30 31 2 31 32
M  V30 32 1 32 33
M  V30 33 1 23 34
M  V30 34 2 34 35
M  V30 35 1 17 36
M  V30 36 1 11 37
M  V30 37 2 37 38
M  V30 38 2 3 39
M  V30 39 1 39 40
M  V30 40 2 40 41
M  V30 41 1 41 1
M  V30 42 1 7 2
M  V30 43 1 38 8
M  V30 44 1 36 14
M  V30 45 1 35 20
M  V30 46 2 33 24
M  V30 47 2 30 25
M  V30 48 1 1 42
M  V30 49 1 5 43
M  V30 50 1 6 44
M  V30 51 1 7 45
M  V30 52 1 9 46
M  V30 53 1 10 47
M  V30 54 1 15 48
M  V30 55 1 16 49
M  V30 56 1 21 50
M  V30 57 1 22 51
M  V30 58 1 27 52
M  V30 59 1 28 53
M  V30 60 1 30 54
M  V30 61 1 31 55
M  V30 62 1 32 56
M  V30 63 1 33 57
M  V30 64 1 34 58
M  V30 65 1 35 59
M  V30 66 1 37 60
M  V30 67 1 38 61
M  V30 68 1 39 62
M  V30 69 1 41 63
M  V30 END BOND
M  V30 END CTAB
M  END

$$$$
