
     RDKit          3D

  0  0  0  0  0  0  0  0  0  0999 V3000
M  V30 BEGIN CTAB
M  V30 COUNTS 63 69 0 0 0
M  V30 BEGIN ATOM
M  V30 1 C 12.7557 0.9916 -0.5851 0
M  V30 2 C 11.7117 0.2868 -1.1986 0
M  V30 3 C 10.3686 0.5513 -0.8273 0
M  V30 4 C 9.3178 -0.1716 -1.4503 0
M  V30 5 C 9.6273 -1.1129 -2.4459 0
M  V30 6 C 10.9520 -1.3599 -2.8068 0
M  V30 7 C 11.9911 -0.6703 -2.1838 0
M  V30 8 C 7.8963 0.0137 -1.0799 0
M  V30 9 C 6.9698 0.4565 -2.0372 0
M  V30 10 C 5.6228 0.6113 -1.6957 0
M  V30 11 C 5.1891 0.3166 -0.3971 0
M  V30 12 C 3.8028 0.4772 -0.0460 0
M  V30 13 C 2.6416 0.6123 0.2479 0
M  V30 14 C 1.2589 0.7737 0.5981 0
M  V30 15 C 0.7547 1.7316 1.4676 0
M  V30 16 C -0.6344 1.6515 1.6207 0
M  V30 17 C -1.2033 0.6321 0.8694 0
M  V30 18 C -2.6014 0.3090 0.8277 0
M  V30 19 C -3.7754 0.0376 0.7937 0
M  V30 20 C -5.1770 -0.2864 0.7547 0
M  V30 21 C -6.0000 0.2749 -0.2296 0
M  V30 22 C -7.3619 -0.0394 -0.2674 0
M  V30 23 C -7.9142 -0.9105 0.6860 0
M  V30 24 C -9.3514 -1.2625 0.6357 0
M  V30 25 C -10.3790 -0.2969 0.7977 0
M  V30 26 C -11.7352 -0.6980 0.6894 0
M  V30 27 C -12.7561 0.2492 0.8429 0
M  V30 28 C -12.4262 1.5759 1.1152 0
M  V30 29 N -11.1254 1.9442 1.2384 0
M  V30 30 C -10.1081 1.0549 1.0924 0
M  V30 31 C -12.0513 -2.0405 0.4392 0
M  V30 32 C -11.0365 -2.9867 0.3038 0
M  V30 33 C -9.6989 -2.6034 0.4027 0
M  V30 34 C -7.0822 -1.4808 1.6625 0
M  V30 35 C -5.7203 -1.1663 1.6990 0
M  V30 36 S -0.0009 -0.1745 0.0148 0
M  V30 37 C 6.1070 -0.1380 0.5580 0
M  V30 38 C 7.4539 -0.2939 0.2172 0
M  V30 39 C 10.1312 1.5522 0.1367 0
M  V30 40 N 11.1699 2.2180 0.7069 0
M  V30 41 C 12.4603 1.9577 0.3753 0
M  V30 42 H 13.7892 0.8011 -0.8495 0
M  V30 43 H 8.8378 -1.6718 -2.9340 0
M  V30 44 H 11.1744 -2.0943 -3.5702 0
M  V30 45 H 13.0130 -0.8795 -2.4773 0
M  V30 46 H 7.2925 0.6878 -3.0450 0
M  V30 47 H 4.9203 0.9596 -2.4433 0
M  V30 48 H 1.3680 2.4641 1.9761 0
M  V30 49 H -1.2017 2.3160 2.2595 0
M  V30 50 H -5.5888 0.9521 -0.9686 0
M  V30 51 H -7.9862 0.3935 -1.0395 0
M  V30 52 H -13.7984 -0.0346 0.7587 0
M  V30 53 H -13.2073 2.3144 1.2375 0
M  V30 54 H -9.0959 1.4111 1.2218 0
M  V30 55 H -13.0836 -2.3592 0.3560 0
M  V30 56 H -11.2875 -4.0227 0.1156 0
M  V30 57 H -8.9276 -3.3544 0.2797 0
M  V30 58 H -7.4902 -2.1626 2.3986 0
M  V30 59 H -5.0916 -1.6092 2.4622 0
M  V30 60 H 5.7811 -0.3743 1.5638 0
M  V30 61 H 8.1523 -0.6557 0.9620 0
M  V30 62 H 9.1275 1.8219 0.4332 0
M  V30 63 H 13.2592 2.5090 0.8530 0
M  V30 END ATOM
M  V30 BEGIN BOND
M  V30 1 2 1 2
M  V30 2 1 2 3
M  V30 3 1 3 4
M  V30 4 2 4 5
M  V30 5 1 5 6
M  V30 6 2 6 7
M  V30 7 1 4 8
M  V30 8 2 8 9
M  V30 9 1 9 10
M  V30 10 2 10 11
M  V30 11 1 11 12
M  V30 12 3 12 13
M  V30 13 1 13 14
M  V30 14 2 14 15
M  V30 15 1 15 16
M  V30 16 2 16 17
M  V30 17 1 17 18
M  V30 18 3 18 19
M  V30 19 1 19 20
M  V30 20 2 20 21
M  V30 21 1 21 22
M  V30 22 2 22 23
M  V30 23 1 23 24
M  V30 24 1 24 25
M  V30 25 1 25 26
M  V30 26 2 26 27
M  V30 27 1 27 28
M  V30 28 2 28 29
M  V30 29 1 29 30
M  V30 30 1 26 31
M  V30 31 2 31 32
M  V30 32 1 32 33
M  V30 33 1 23 34
M  V30 34 2 34 35
M  V30 35 1 17 36
M  V30 36 1 11 37
M  V30 37 2 37 38
M  V30 38 2 3 39
M  V30 39 1 39 40
M  V30 40 2 40 41
M  V30 41 1 41 1
M  V30 42 1 7 2
M  V30 43 1 38 8
M  V30 44 1 36 14
M  V30 45 1 35 20
M  V30 46 2 33 24
M  V30 47 2 30 25
M  V30 48 1 1 42
M  V30 49 1 5 43
M  V30 50 1 6 44
M  V30 51 1 7 45
M  V30 52 1 9 46
M  V30 53 1 10 47
M  V30 54 1 15 48
M  V30 55 1 16 49
M  V30 56 1 21 50
M  V30 57 1 22 51
M  V30 58 1 27 52
M  V30 59 1 28 53
M  V30 60 1 30 54
M  V30 61 1 31 55
M  V30 62 1 32 56
M  V30 63 1 33 57
M  V30 64 1 34 58
M  V30 65 1 35 59
M  V30 66 1 37 60
M  V30 67 1 38 61
M  V30 68 1 39 62
M  V30 69 1 41 63
M  V30 END BOND
M  V30 END CTAB
M  END

$$$$
