
     RDKit          3D

  0  0  0  0  0  0  0  0  0  0999 V3000
M  V30 BEGIN CTAB
M  V30 COUNTS 63 69 0 0 0
M  V30 BEGIN ATOM
M  V30 1 C 12.2945 -2.1226 -0.1172 0
M  V30 2 C 11.4134 -1.6068 -1.0768 0
M  V30 3 C 10.0151 -1.6372 -0.8399 0
M  V30 4 C 9.1306 -1.1160 -1.8202 0
M  V30 5 C 9.6605 -0.5497 -2.9921 0
M  V30 6 C 11.0373 -0.5220 -3.2113 0
M  V30 7 C 11.9113 -1.0532 -2.2638 0
M  V30 8 C 7.6580 -1.1609 -1.6676 0
M  V30 9 C 6.9118 0.0281 -1.6618 0
M  V30 10 C 5.5196 -0.0134 -1.5344 0
M  V30 11 C 4.8612 -1.2449 -1.4240 0
M  V30 12 C 3.4292 -1.2899 -1.2890 0
M  V30 13 C 2.2301 -1.3332 -1.1745 0
M  V30 14 C 0.8023 -1.3900 -1.0350 0
M  V30 15 C -0.0165 -2.3904 -1.5416 0
M  V30 16 C -1.3686 -2.1957 -1.2368 0
M  V30 17 C -1.5951 -1.0442 -0.4954 0
M  V30 18 C -2.8746 -0.5956 -0.0244 0
M  V30 19 C -3.9487 -0.2208 0.3735 0
M  V30 20 C -5.2304 0.2256 0.8527 0
M  V30 21 C -5.4609 0.3464 2.2286 0
M  V30 22 C -6.7053 0.7809 2.6957 0
M  V30 23 C -7.7273 1.1061 1.7896 0
M  V30 24 C -9.0500 1.5468 2.2883 0
M  V30 25 C -9.5966 2.8201 1.9794 0
M  V30 26 C -10.8879 3.1578 2.4576 0
M  V30 27 C -11.4385 4.4094 2.1513 0
M  V30 28 C -10.7019 5.3159 1.3906 0
M  V30 29 N -9.4574 4.9904 0.9575 0
M  V30 30 C -8.8922 3.7851 1.2308 0
M  V30 31 C -11.6055 2.2447 3.2422 0
M  V30 32 C -11.0522 1.0051 3.5594 0
M  V30 33 C -9.7869 0.6578 3.0871 0
M  V30 34 C -7.4960 0.9676 0.4112 0
M  V30 35 C -6.2509 0.5346 -0.0551 0
M  V30 36 S -0.1333 -0.2629 -0.2098 0
M  V30 37 C 5.5992 -2.4339 -1.4460 0
M  V30 38 C 6.9910 -2.3936 -1.5732 0
M  V30 39 C 9.5613 -2.1651 0.3863 0
M  V30 40 N 10.4459 -2.6550 1.2936 0
M  V30 41 C 11.7849 -2.6515 1.0679 0
M  V30 42 H 13.3671 -2.1121 -0.2789 0
M  V30 43 H 9.0013 -0.1424 -3.7494 0
M  V30 44 H 11.4288 -0.0913 -4.1239 0
M  V30 45 H 12.9772 -1.0243 -2.4554 0
M  V30 46 H 7.4094 0.9862 -1.7477 0
M  V30 47 H 4.9574 0.9127 -1.5216 0
M  V30 48 H 0.3493 -3.2367 -2.1082 0
M  V30 49 H -2.1511 -2.8776 -1.5435 0
M  V30 50 H -4.6788 0.1047 2.9390 0
M  V30 51 H -6.8710 0.8716 3.7622 0
M  V30 52 H -12.4263 4.6851 2.4999 0
M  V30 53 H -11.1177 6.2851 1.1499 0
M  V30 54 H -7.8902 3.5980 0.8721 0
M  V30 55 H -12.5914 2.4925 3.6171 0
M  V30 56 H -11.6094 0.3061 4.1696 0
M  V30 57 H -9.3846 -0.3176 3.3344 0
M  V30 58 H -8.2807 1.1957 -0.3000 0
M  V30 59 H -6.0849 0.4388 -1.1214 0
M  V30 60 H 5.0989 -3.3917 -1.3672 0
M  V30 61 H 7.5497 -3.3213 -1.5981 0
M  V30 62 H 8.5105 -2.1820 0.6389 0
M  V30 63 H 12.4559 -3.0534 1.8153 0
M  V30 END ATOM
M  V30 BEGIN BOND
M  V30 1 2 1 2
M  V30 2 1 2 3
M  V30 3 1 3 4
M  V30 4 2 4 5
M  V30 5 1 5 6
M  V30 6 2 6 7
M  V30 7 1 4 8
M  V30 8 2 8 9
M  V30 9 1 9 10
M  V30 10 2 10 11
M  V30 11 1 11 12
M  V30 12 3 12 13
M  V30 13 1 13 14
M  V30 14 2 14 15
M  V30 15 1 15 16
M  V30 16 2 16 17
M  V30 17 1 17 18
M  V30 18 3 18 19
M  V30 19 1 19 20
M  V30 20 2 20 21
M  V30 21 1 21 22
M  V30 22 2 22 23
M  V30 23 1 23 24
M  V30 24 1 24 25
M  V30 25 1 25 26
M  V30 26 2 26 27
M  V30 27 1 27 28
M  V30 28 2 28 29
M  V30 29 1 29 30
M  V30 30 1 26 31
M  V30 31 2 31 32
M  V30 32 1 32 33
M  V30 33 1 23 34
M  V30 34 2 34 35
M  V30 35 1 17 36
M  V30 36 1 11 37
M  V30 37 2 37 38
M  V30 38 2 3 39
M  V30 39 1 39 40
M  V30 40 2 40 41
M  V30 41 1 41 1
M  V30 42 1 7 2
M  V30 43 1 38 8
M  V30 44 1 36 14
M  V30 45 1 35 20
M  V30 46 2 33 24
M  V30 47 2 30 25
M  V30 48 1 1 42
M  V30 49 1 5 43
M  V30 50 1 6 44
M  V30 51 1 7 45
M  V30 52 1 9 46
M  V30 53 1 10 47
M  V30 54 1 15 48
M  V30 55 1 16 49
M  V30 56 1 21 50
M  V30 57 1 22 51
M  V30 58 1 27 52
M  V30 59 1 28 53
M  V30 60 1 30 54
M  V30 61 1 31 55
M  V30 62 1 32 56
M  V30 63 1 33 57
M  V30 64 1 34 58
M  V30 65 1 35 59
M  V30 66 1 37 60
M  V30 67 1 38 61
M  V30 68 1 39 62
M  V30 69 1 41 63
M  V30 END BOND
M  V30 END CTAB
M  END

$$$$
