
     RDKit          3D

  0  0  0  0  0  0  0  0  0  0999 V3000
M  V30 BEGIN CTAB
M  V30 COUNTS 63 69 0 0 0
M  V30 BEGIN ATOM
M  V30 1 C 11.8915 2.2771 -0.9231 0
M  V30 2 C 11.3502 1.0176 -0.6334 0
M  V30 3 C 9.9479 0.8715 -0.4781 0
M  V30 4 C 9.4081 -0.4093 -0.1903 0
M  V30 5 C 10.2770 -1.5017 -0.0330 0
M  V30 6 C 11.6550 -1.3443 -0.1824 0
M  V30 7 C 12.1912 -0.0942 -0.4876 0
M  V30 8 C 7.9524 -0.6489 -0.0646 0
M  V30 9 C 7.1005 -0.4405 -1.1616 0
M  V30 10 C 5.7292 -0.6872 -1.0460 0
M  V30 11 C 5.1992 -1.1537 0.1634 0
M  V30 12 C 3.7877 -1.4071 0.2822 0
M  V30 13 C 2.6052 -1.6189 0.3817 0
M  V30 14 C 1.1970 -1.8707 0.5004 0
M  V30 15 C 0.6243 -3.0667 0.9121 0
M  V30 16 C -0.7746 -3.0224 0.9331 0
M  V30 17 C -1.2826 -1.7922 0.5377 0
M  V30 18 C -2.6750 -1.4516 0.4613 0
M  V30 19 C -3.8442 -1.1656 0.3975 0
M  V30 20 C -5.2401 -0.8240 0.3217 0
M  V30 21 C -5.6785 0.1372 -0.5976 0
M  V30 22 C -7.0346 0.4690 -0.6717 0
M  V30 23 C -7.9629 -0.1509 0.1807 0
M  V30 24 C -9.4028 0.1817 0.0892 0
M  V30 25 C -9.9024 1.4850 0.3474 0
M  V30 26 C -11.2884 1.7433 0.1918 0
M  V30 27 C -11.7896 3.0281 0.4390 0
M  V30 28 C -10.9199 4.0368 0.8503 0
M  V30 29 N -9.5988 3.7725 1.0175 0
M  V30 30 C -9.0755 2.5402 0.7837 0
M  V30 31 C -12.1540 0.7124 -0.1988 0
M  V30 32 C -11.6589 -0.5704 -0.4283 0
M  V30 33 C -10.2968 -0.8353 -0.2844 0
M  V30 34 C -7.5201 -1.1236 1.0911 0
M  V30 35 C -6.1637 -1.4551 1.1642 0
M  V30 36 S -0.0141 -0.7550 0.1610 0
M  V30 37 C 6.0467 -1.3766 1.2560 0
M  V30 38 C 7.4182 -1.1298 1.1414 0
M  V30 39 C 9.1440 2.0242 -0.5907 0
M  V30 40 N 9.7058 3.2301 -0.8685 0
M  V30 41 C 11.0442 3.3777 -1.0412 0
M  V30 42 H 12.9592 2.4099 -1.0514 0
M  V30 43 H 9.8827 -2.4860 0.1898 0
M  V30 44 H 12.3105 -2.1978 -0.0663 0
M  V30 45 H 13.2641 0.0055 -0.6022 0
M  V30 46 H 7.4996 -0.0890 -2.1052 0
M  V30 47 H 5.0835 -0.5172 -1.8992 0
M  V30 48 H 1.1960 -3.9431 1.1887 0
M  V30 49 H -1.3921 -3.8611 1.2276 0
M  V30 50 H -4.9732 0.6271 -1.2582 0
M  V30 51 H -7.3626 1.2068 -1.3937 0
M  V30 52 H -12.8439 3.2486 0.3206 0
M  V30 53 H -11.2975 5.0316 1.0458 0
M  V30 54 H -8.0184 2.3937 0.9545 0
M  V30 55 H -13.2150 0.8972 -0.3192 0
M  V30 56 H -12.3335 -1.3632 -0.7249 0
M  V30 57 H -9.9336 -1.8367 -0.4825 0
M  V30 58 H -8.2245 -1.6193 1.7480 0
M  V30 59 H -5.8357 -2.2032 1.8760 0
M  V30 60 H 5.6476 -1.7415 2.1948 0
M  V30 61 H 8.0630 -1.3064 1.9937 0
M  V30 62 H 8.0737 1.9806 -0.4468 0
M  V30 63 H 11.4527 4.3547 -1.2624 0
M  V30 END ATOM
M  V30 BEGIN BOND
M  V30 1 2 1 2
M  V30 2 1 2 3
M  V30 3 1 3 4
M  V30 4 2 4 5
M  V30 5 1 5 6
M  V30 6 2 6 7
M  V30 7 1 4 8
M  V30 8 2 8 9
M  V30 9 1 9 10
M  V30 10 2 10 11
M  V30 11 1 11 12
M  V30 12 3 12 13
M  V30 13 1 13 14
M  V30 14 2 14 15
M  V30 15 1 15 16
M  V30 16 2 16 17
M  V30 17 1 17 18
M  V30 18 3 18 19
M  V30 19 1 19 20
M  V30 20 2 20 21
M  V30 21 1 21 22
M  V30 22 2 22 23
M  V30 23 1 23 24
M  V30 24 1 24 25
M  V30 25 1 25 26
M  V30 26 2 26 27
M  V30 27 1 27 28
M  V30 28 2 28 29
M  V30 29 1 29 30
M  V30 30 1 26 31
M  V30 31 2 31 32
M  V30 32 1 32 33
M  V30 33 1 23 34
M  V30 34 2 34 35
M  V30 35 1 17 36
M  V30 36 1 11 37
M  V30 37 2 37 38
M  V30 38 2 3 39
M  V30 39 1 39 40
M  V30 40 2 40 41
M  V30 41 1 41 1
M  V30 42 1 7 2
M  V30 43 1 38 8
M  V30 44 1 36 14
M  V30 45 1 35 20
M  V30 46 2 33 24
M  V30 47 2 30 25
M  V30 48 1 1 42
M  V30 49 1 5 43
M  V30 50 1 6 44
M  V30 51 1 7 45
M  V30 52 1 9 46
M  V30 53 1 10 47
M  V30 54 1 15 48
M  V30 55 1 16 49
M  V30 56 1 21 50
M  V30 57 1 22 51
M  V30 58 1 27 52
M  V30 59 1 28 53
M  V30 60 1 30 54
M  V30 61 1 31 55
M  V30 62 1 32 56
M  V30 63 1 33 57
M  V30 64 1 34 58
M  V30 65 1 35 59
M  V30 66 1 37 60
M  V30 67 1 38 61
M  V30 68 1 39 62
M  V30 69 1 41 63
M  V30 END BOND
M  V30 END CTAB
M  END

$$$$
