
     RDKit          3D

  0  0  0  0  0  0  0  0  0  0999 V3000
M  V30 BEGIN CTAB
M  V30 COUNTS 63 69 0 0 0
M  V30 BEGIN ATOM
M  V30 1 C 12.3036 2.2196 -1.5023 0
M  V30 2 C 11.5589 1.4425 -0.6052 0
M  V30 3 C 10.1643 1.2777 -0.8043 0
M  V30 4 C 9.4190 0.4840 0.1064 0
M  V30 5 C 10.0724 -0.0965 1.2060 0
M  V30 6 C 11.4435 0.0778 1.3946 0
M  V30 7 C 12.1867 0.8369 0.4919 0
M  V30 8 C 7.9713 0.2248 -0.0644 0
M  V30 9 C 7.0601 0.6343 0.9220 0
M  V30 10 C 5.6949 0.3713 0.7732 0
M  V30 11 C 5.2303 -0.3114 -0.3579 0
M  V30 12 C 3.8252 -0.5821 -0.5102 0
M  V30 13 C 2.6483 -0.8089 -0.6377 0
M  V30 14 C 1.2466 -1.0789 -0.7894 0
M  V30 15 C 0.6837 -1.8932 -1.7630 0
M  V30 16 C -0.7106 -1.9723 -1.6681 0
M  V30 17 C -1.2248 -1.2192 -0.6211 0
M  V30 18 C -2.6145 -1.1075 -0.2793 0
M  V30 19 C -3.7815 -1.0138 0.0077 0
M  V30 20 C -5.1746 -0.9019 0.3505 0
M  V30 21 C -5.7305 0.3532 0.6277 0
M  V30 22 C -7.0839 0.4622 0.9612 0
M  V30 23 C -7.8955 -0.6830 1.0107 0
M  V30 24 C -9.3236 -0.5737 1.3856 0
M  V30 25 C -10.2602 0.1629 0.6142 0
M  V30 26 C -11.6027 0.2654 1.0603 0
M  V30 27 C -12.5329 0.9949 0.3082 0
M  V30 28 C -12.1301 1.6011 -0.8806 0
M  V30 29 N -10.8479 1.4778 -1.3092 0
M  V30 30 C -9.9168 0.7819 -0.6050 0
M  V30 31 C -11.9981 -0.3702 2.2454 0
M  V30 32 C -11.0774 -1.1106 2.9853 0
M  V30 33 C -9.7528 -1.2139 2.5599 0
M  V30 34 C -7.3301 -1.9404 0.7452 0
M  V30 35 C -5.9765 -2.0484 0.4119 0
M  V30 36 S 0.0325 -0.4537 0.1913 0
M  V30 37 C 6.1367 -0.7339 -1.3382 0
M  V30 38 C 7.5020 -0.4716 -1.1902 0
M  V30 39 C 9.5668 1.9399 -1.8962 0
M  V30 40 N 10.3214 2.6888 -2.7429 0
M  V30 41 C 11.6605 2.8353 -2.5748 0
M  V30 42 H 13.3709 2.3539 -1.3721 0
M  V30 43 H 9.5187 -0.7029 1.9129 0
M  V30 44 H 11.9336 -0.3832 2.2425 0
M  V30 45 H 13.2512 0.9571 0.6554 0
M  V30 46 H 7.4068 1.1627 1.8017 0
M  V30 47 H 5.0026 0.6988 1.5397 0
M  V30 48 H 1.2592 -2.4137 -2.5177 0
M  V30 49 H -1.3204 -2.5601 -2.3419 0
M  V30 50 H -5.1178 1.2459 0.5890 0
M  V30 51 H -7.4999 1.4375 1.1830 0
M  V30 52 H -13.5620 1.0907 0.6336 0
M  V30 53 H -12.8413 2.1647 -1.4696 0
M  V30 54 H -8.9186 0.7077 -1.0127 0
M  V30 55 H -13.0213 -0.3005 2.5953 0
M  V30 56 H -11.3903 -1.6030 3.8970 0
M  V30 57 H -9.0523 -1.7829 3.1594 0
M  V30 58 H -7.9395 -2.8348 0.7898 0
M  V30 59 H -5.5554 -3.0247 0.2035 0
M  V30 60 H 5.7887 -1.2681 -2.2142 0
M  V30 61 H 8.1942 -0.8122 -1.9506 0
M  V30 62 H 8.5030 1.8804 -2.0773 0
M  V30 63 H 12.2263 3.4392 -3.2717 0
M  V30 END ATOM
M  V30 BEGIN BOND
M  V30 1 2 1 2
M  V30 2 1 2 3
M  V30 3 1 3 4
M  V30 4 2 4 5
M  V30 5 1 5 6
M  V30 6 2 6 7
M  V30 7 1 4 8
M  V30 8 2 8 9
M  V30 9 1 9 10
M  V30 10 2 10 11
M  V30 11 1 11 12
M  V30 12 3 12 13
M  V30 13 1 13 14
M  V30 14 2 14 15
M  V30 15 1 15 16
M  V30 16 2 16 17
M  V30 17 1 17 18
M  V30 18 3 18 19
M  V30 19 1 19 20
M  V30 20 2 20 21
M  V30 21 1 21 22
M  V30 22 2 22 23
M  V30 23 1 23 24
M  V30 24 1 24 25
M  V30 25 1 25 26
M  V30 26 2 26 27
M  V30 27 1 27 28
M  V30 28 2 28 29
M  V30 29 1 29 30
M  V30 30 1 26 31
M  V30 31 2 31 32
M  V30 32 1 32 33
M  V30 33 1 23 34
M  V30 34 2 34 35
M  V30 35 1 17 36
M  V30 36 1 11 37
M  V30 37 2 37 38
M  V30 38 2 3 39
M  V30 39 1 39 40
M  V30 40 2 40 41
M  V30 41 1 41 1
M  V30 42 1 7 2
M  V30 43 1 38 8
M  V30 44 1 36 14
M  V30 45 1 35 20
M  V30 46 2 33 24
M  V30 47 2 30 25
M  V30 48 1 1 42
M  V30 49 1 5 43
M  V30 50 1 6 44
M  V30 51 1 7 45
M  V30 52 1 9 46
M  V30 53 1 10 47
M  V30 54 1 15 48
M  V30 55 1 16 49
M  V30 56 1 21 50
M  V30 57 1 22 51
M  V30 58 1 27 52
M  V30 59 1 28 53
M  V30 60 1 30 54
M  V30 61 1 31 55
M  V30 62 1 32 56
M  V30 63 1 33 57
M  V30 64 1 34 58
M  V30 65 1 35 59
M  V30 66 1 37 60
M  V30 67 1 38 61
M  V30 68 1 39 62
M  V30 69 1 41 63
M  V30 END BOND
M  V30 END CTAB
M  END

$$$$
