
     RDKit          3D

  0  0  0  0  0  0  0  0  0  0999 V3000
M  V30 BEGIN CTAB
M  V30 COUNTS 63 69 0 0 0
M  V30 BEGIN ATOM
M  V30 1 C 12.6675 0.8485 0.6508 0
M  V30 2 C 11.6366 1.2828 -0.1929 0
M  V30 3 C 10.3257 0.7664 -0.0285 0
M  V30 4 C 9.2865 1.2167 -0.8842 0
M  V30 5 C 9.5838 2.1431 -1.8974 0
M  V30 6 C 10.8784 2.6397 -2.0527 0
M  V30 7 C 11.9000 2.2188 -1.2025 0
M  V30 8 C 7.8849 0.7621 -0.7422 0
M  V30 9 C 7.2532 0.0845 -1.7971 0
M  V30 10 C 5.9208 -0.3207 -1.6770 0
M  V30 11 C 5.2051 -0.0430 -0.5057 0
M  V30 12 C 3.8298 -0.4495 -0.3886 0
M  V30 13 C 2.6764 -0.7869 -0.2957 0
M  V30 14 C 1.3012 -1.1847 -0.1904 0
M  V30 15 C 0.8379 -2.4937 -0.1992 0
M  V30 16 C -0.5556 -2.5788 -0.0960 0
M  V30 17 C -1.1684 -1.3362 -0.0102 0
M  V30 18 C -2.5820 -1.1098 0.0954 0
M  V30 19 C -3.7689 -0.9181 0.1820 0
M  V30 20 C -5.1858 -0.6872 0.2828 0
M  V30 21 C -5.8048 0.2489 -0.5549 0
M  V30 22 C -7.1807 0.4746 -0.4580 0
M  V30 23 C -7.9522 -0.2431 0.4709 0
M  V30 24 C -9.4071 0.0059 0.5880 0
M  V30 25 C -10.3103 -0.2329 -0.4807 0
M  V30 26 C -11.6845 0.0760 -0.3138 0
M  V30 27 C -12.5821 -0.1503 -1.3654 0
M  V30 28 C -12.1150 -0.6911 -2.5621 0
M  V30 29 N -10.8015 -1.0038 -2.7027 0
M  V30 30 C -9.9007 -0.7955 -1.7066 0
M  V30 31 C -12.1430 0.5971 0.9038 0
M  V30 32 C -11.2535 0.8067 1.9564 0
M  V30 33 C -9.8982 0.5134 1.8019 0
M  V30 34 C -7.3246 -1.1698 1.3185 0
M  V30 35 C -5.9479 -1.3944 1.2212 0
M  V30 36 S -0.0001 -0.1288 -0.0603 0
M  V30 37 C 5.8270 0.6428 0.5452 0
M  V30 38 C 7.1598 1.0479 0.4263 0
M  V30 39 C 10.1150 -0.2035 0.9728 0
M  V30 40 N 11.1409 -0.6035 1.7695 0
M  V30 41 C 12.3948 -0.1003 1.6352 0
M  V30 42 H 13.6747 1.2339 0.5461 0
M  V30 43 H 8.8033 2.4966 -2.5607 0
M  V30 44 H 11.0891 3.3593 -2.8333 0
M  V30 45 H 12.8979 2.6190 -1.3390 0
M  V30 46 H 7.7943 -0.1327 -2.7098 0
M  V30 47 H 5.4477 -0.8462 -2.4980 0
M  V30 48 H 1.4826 -3.3585 -0.2799 0
M  V30 49 H -1.0953 -3.5168 -0.0884 0
M  V30 50 H -5.2235 0.8056 -1.2800 0
M  V30 51 H -7.6455 1.2087 -1.1047 0
M  V30 52 H -13.6346 0.0841 -1.2617 0
M  V30 53 H -12.8005 -0.8711 -3.3793 0
M  V30 54 H -8.8737 -1.0853 -1.8782 0
M  V30 55 H -13.1911 0.8346 1.0439 0
M  V30 56 H -11.6153 1.2040 2.8960 0
M  V30 57 H -9.2238 0.6987 2.6294 0
M  V30 58 H -7.9029 -1.7223 2.0487 0
M  V30 59 H -5.4780 -2.1176 1.8769 0
M  V30 60 H 5.2805 0.8687 1.4531 0
M  V30 61 H 7.6261 1.5881 1.2412 0
M  V30 62 H 9.1455 -0.6576 1.1218 0
M  V30 63 H 13.1846 -0.4437 2.2899 0
M  V30 END ATOM
M  V30 BEGIN BOND
M  V30 1 2 1 2
M  V30 2 1 2 3
M  V30 3 1 3 4
M  V30 4 2 4 5
M  V30 5 1 5 6
M  V30 6 2 6 7
M  V30 7 1 4 8
M  V30 8 2 8 9
M  V30 9 1 9 10
M  V30 10 2 10 11
M  V30 11 1 11 12
M  V30 12 3 12 13
M  V30 13 1 13 14
M  V30 14 2 14 15
M  V30 15 1 15 16
M  V30 16 2 16 17
M  V30 17 1 17 18
M  V30 18 3 18 19
M  V30 19 1 19 20
M  V30 20 2 20 21
M  V30 21 1 21 22
M  V30 22 2 22 23
M  V30 23 1 23 24
M  V30 24 1 24 25
M  V30 25 1 25 26
M  V30 26 2 26 27
M  V30 27 1 27 28
M  V30 28 2 28 29
M  V30 29 1 29 30
M  V30 30 1 26 31
M  V30 31 2 31 32
M  V30 32 1 32 33
M  V30 33 1 23 34
M  V30 34 2 34 35
M  V30 35 1 17 36
M  V30 36 1 11 37
M  V30 37 2 37 38
M  V30 38 2 3 39
M  V30 39 1 39 40
M  V30 40 2 40 41
M  V30 41 1 41 1
M  V30 42 1 7 2
M  V30 43 1 38 8
M  V30 44 1 36 14
M  V30 45 1 35 20
M  V30 46 2 33 24
M  V30 47 2 30 25
M  V30 48 1 1 42
M  V30 49 1 5 43
M  V30 50 1 6 44
M  V30 51 1 7 45
M  V30 52 1 9 46
M  V30 53 1 10 47
M  V30 54 1 15 48
M  V30 55 1 16 49
M  V30 56 1 21 50
M  V30 57 1 22 51
M  V30 58 1 27 52
M  V30 59 1 28 53
M  V30 60 1 30 54
M  V30 61 1 31 55
M  V30 62 1 32 56
M  V30 63 1 33 57
M  V30 64 1 34 58
M  V30 65 1 35 59
M  V30 66 1 37 60
M  V30 67 1 38 61
M  V30 68 1 39 62
M  V30 69 1 41 63
M  V30 END BOND
M  V30 END CTAB
M  END

$$$$
