
     RDKit          3D

  0  0  0  0  0  0  0  0  0  0999 V3000
M  V30 BEGIN CTAB
M  V30 COUNTS 63 69 0 0 0
M  V30 BEGIN ATOM
M  V30 1 C -11.9613 3.4620 0.3543 0
M  V30 2 C -11.3645 2.4182 -0.3649 0
M  V30 3 C -10.0153 2.0650 -0.1064 0
M  V30 4 C -9.4173 1.0099 -0.8440 0
M  V30 5 C -10.1841 0.3147 -1.7936 0
M  V30 6 C -11.5120 0.6675 -2.0347 0
M  V30 7 C -12.0998 1.7175 -1.3308 0
M  V30 8 C -8.0005 0.6184 -0.6660 0
M  V30 9 C -7.6753 -0.6802 -0.2428 0
M  V30 10 C -6.3375 -1.0590 -0.0948 0
M  V30 11 C -5.3137 -0.1462 -0.3775 0
M  V30 12 C -3.9371 -0.5367 -0.2252 0
M  V30 13 C -2.7840 -0.8636 -0.0975 0
M  V30 14 C -1.4106 -1.2528 0.0546 0
M  V30 15 C -0.9689 -2.4918 0.4991 0
M  V30 16 C 0.4268 -2.5875 0.5476 0
M  V30 17 C 1.0631 -1.4226 0.1406 0
M  V30 18 C 2.4839 -1.2251 0.0856 0
M  V30 19 C 3.6770 -1.0592 0.0396 0
M  V30 20 C 5.1012 -0.8610 -0.0151 0
M  V30 21 C 5.8125 -0.5551 1.1518 0
M  V30 22 C 7.1962 -0.3619 1.0990 0
M  V30 23 C 7.8821 -0.4833 -0.1206 0
M  V30 24 C 9.3440 -0.2573 -0.1838 0
M  V30 25 C 10.2722 -1.0681 0.5205 0
M  V30 26 C 11.6556 -0.7622 0.4536 0
M  V30 27 C 12.5784 -1.5536 1.1501 0
M  V30 28 C 12.1261 -2.6443 1.8910 0
M  V30 29 N 10.8019 -2.9409 1.9298 0
M  V30 30 C 9.8769 -2.1944 1.2708 0
M  V30 31 C 12.0971 0.3232 -0.3155 0
M  V30 32 C 11.1812 1.1007 -1.0227 0
M  V30 33 C 9.8175 0.8135 -0.9599 0
M  V30 34 C 7.1625 -0.7769 -1.2898 0
M  V30 35 C 5.7786 -0.9694 -1.2361 0
M  V30 36 S -0.0874 -0.2712 -0.2802 0
M  V30 37 C -5.6325 1.1460 -0.8129 0
M  V30 38 C -6.9699 1.5256 -0.9615 0
M  V30 39 C -9.3270 2.7678 0.9035 0
M  V30 40 N -9.9408 3.7720 1.5831 0
M  V30 41 C -11.2244 4.1334 1.3286 0
M  V30 42 H -12.9888 3.7520 0.1688 0
M  V30 43 H -9.7449 -0.4953 -2.3636 0
M  V30 44 H -12.0869 0.1273 -2.7758 0
M  V30 45 H -13.1317 1.9771 -1.5358 0
M  V30 46 H -8.4579 -1.3956 -0.0214 0
M  V30 47 H -6.1017 -2.0625 0.2387 0
M  V30 48 H -1.6309 -3.3008 0.7796 0
M  V30 49 H 0.9512 -3.4781 0.8693 0
M  V30 50 H 5.2975 -0.4628 2.1005 0
M  V30 51 H 7.7336 -0.1160 2.0068 0
M  V30 52 H 13.6391 -1.3342 1.1173 0
M  V30 53 H 12.8310 -3.2627 2.4305 0
M  V30 54 H 8.8411 -2.4973 1.3287 0
M  V30 55 H 13.1515 0.5656 -0.3757 0
M  V30 56 H 11.5292 1.9346 -1.6186 0
M  V30 57 H 9.1237 1.4410 -1.5064 0
M  V30 58 H 7.6745 -0.8630 -2.2404 0
M  V30 59 H 5.2373 -1.2015 -2.1455 0
M  V30 60 H -4.8482 1.8580 -1.0403 0
M  V30 61 H -7.2034 2.5248 -1.3085 0
M  V30 62 H -8.3093 2.5191 1.1692 0
M  V30 63 H -11.6770 4.9392 1.8909 0
M  V30 END ATOM
M  V30 BEGIN BOND
M  V30 1 2 1 2
M  V30 2 1 2 3
M  V30 3 1 3 4
M  V30 4 2 4 5
M  V30 5 1 5 6
M  V30 6 2 6 7
M  V30 7 1 4 8
M  V30 8 2 8 9
M  V30 9 1 9 10
M  V30 10 2 10 11
M  V30 11 1 11 12
M  V30 12 3 12 13
M  V30 13 1 13 14
M  V30 14 2 14 15
M  V30 15 1 15 16
M  V30 16 2 16 17
M  V30 17 1 17 18
M  V30 18 3 18 19
M  V30 19 1 19 20
M  V30 20 2 20 21
M  V30 21 1 21 22
M  V30 22 2 22 23
M  V30 23 1 23 24
M  V30 24 1 24 25
M  V30 25 1 25 26
M  V30 26 2 26 27
M  V30 27 1 27 28
M  V30 28 2 28 29
M  V30 29 1 29 30
M  V30 30 1 26 31
M  V30 31 2 31 32
M  V30 32 1 32 33
M  V30 33 1 23 34
M  V30 34 2 34 35
M  V30 35 1 17 36
M  V30 36 1 11 37
M  V30 37 2 37 38
M  V30 38 2 3 39
M  V30 39 1 39 40
M  V30 40 2 40 41
M  V30 41 1 41 1
M  V30 42 1 7 2
M  V30 43 1 38 8
M  V30 44 1 36 14
M  V30 45 1 35 20
M  V30 46 2 33 24
M  V30 47 2 30 25
M  V30 48 1 1 42
M  V30 49 1 5 43
M  V30 50 1 6 44
M  V30 51 1 7 45
M  V30 52 1 9 46
M  V30 53 1 10 47
M  V30 54 1 15 48
M  V30 55 1 16 49
M  V30 56 1 21 50
M  V30 57 1 22 51
M  V30 58 1 27 52
M  V30 59 1 28 53
M  V30 60 1 30 54
M  V30 61 1 31 55
M  V30 62 1 32 56
M  V30 63 1 33 57
M  V30 64 1 34 58
M  V30 65 1 35 59
M  V30 66 1 37 60
M  V30 67 1 38 61
M  V30 68 1 39 62
M  V30 69 1 41 63
M  V30 END BOND
M  V30 END CTAB
M  END

$$$$
