
     RDKit          3D

  0  0  0  0  0  0  0  0  0  0999 V3000
M  V30 BEGIN CTAB
M  V30 COUNTS 63 69 0 0 0
M  V30 BEGIN ATOM
M  V30 1 C -11.6909 0.7812 3.6639 0
M  V30 2 C -11.2189 0.6030 2.3567 0
M  V30 3 C -9.8264 0.6679 2.0948 0
M  V30 4 C -9.3578 0.4919 0.7664 0
M  V30 5 C -10.2810 0.2244 -0.2579 0
M  V30 6 C -11.6477 0.1568 0.0132 0
M  V30 7 C -12.1178 0.3513 1.3111 0
M  V30 8 C -7.9249 0.5954 0.4080 0
M  V30 9 C -7.2571 -0.5043 -0.1538 0
M  V30 10 C -5.9092 -0.4029 -0.5115 0
M  V30 11 C -5.2200 0.8009 -0.3189 0
M  V30 12 C -3.8321 0.9038 -0.6848 0
M  V30 13 C -2.6693 0.9894 -0.9906 0
M  V30 14 C -1.2843 1.0904 -1.3542 0
M  V30 15 C -0.7834 1.8177 -2.4256 0
M  V30 16 C 0.6092 1.7321 -2.5388 0
M  V30 17 C 1.1840 0.9389 -1.5548 0
M  V30 18 C 2.5869 0.6671 -1.4180 0
M  V30 19 C 3.7649 0.4388 -1.3034 0
M  V30 20 C 5.1713 0.1664 -1.1669 0
M  V30 21 C 5.9854 0.0933 -2.3040 0
M  V30 22 C 7.3523 -0.1698 -2.1721 0
M  V30 23 C 7.9150 -0.3715 -0.9016 0
M  V30 24 C 9.3672 -0.6247 -0.7626 0
M  V30 25 C 9.8823 -1.8169 -0.1898 0
M  V30 26 C 11.2847 -1.9695 -0.0424 0
M  V30 27 C 11.8020 -3.1404 0.5273 0
M  V30 28 C 10.9303 -4.1509 0.9300 0
M  V30 29 N 9.5912 -4.0032 0.7635 0
M  V30 30 C 9.0523 -2.8806 0.2191 0
M  V30 31 C 12.1496 -0.9548 -0.4748 0
M  V30 32 C 11.6367 0.2032 -1.0573 0
M  V30 33 C 10.2591 0.3675 -1.2021 0
M  V30 34 C 7.0966 -0.2841 0.2365 0
M  V30 35 C 5.7299 -0.0212 0.1036 0
M  V30 36 S -0.0174 0.3398 -0.5427 0
M  V30 37 C -5.8854 1.9052 0.2279 0
M  V30 38 C -7.2334 1.8051 0.5850 0
M  V30 39 C -8.9555 0.8800 3.1830 0
M  V30 40 N -9.4504 1.0444 4.4380 0
M  V30 41 C -10.7825 1.0065 4.6969 0
M  V30 42 H -12.7509 0.7412 3.8852 0
M  V30 43 H -9.9409 0.0841 -1.2771 0
M  V30 44 H -12.3467 -0.0421 -0.7889 0
M  V30 45 H -13.1837 0.2974 1.4992 0
M  V30 46 H -7.7787 -1.4411 -0.3077 0
M  V30 47 H -5.4051 -1.2619 -0.9382 0
M  V30 48 H -1.4015 2.3912 -3.1042 0
M  V30 49 H 1.1749 2.2328 -3.3138 0
M  V30 50 H 5.5641 0.2410 -3.2912 0
M  V30 51 H 7.9714 -0.2228 -3.0594 0
M  V30 52 H 12.8695 -3.2750 0.6547 0
M  V30 53 H 11.3200 -5.0597 1.3685 0
M  V30 54 H 7.9793 -2.8362 0.0984 0
M  V30 55 H 13.2228 -1.0608 -0.3692 0
M  V30 56 H 12.3103 0.9810 -1.3934 0
M  V30 57 H 9.8838 1.2828 -1.6441 0
M  V30 58 H 7.5184 -0.4171 1.2253 0
M  V30 59 H 5.1102 0.0394 0.9902 0
M  V30 60 H -5.3633 2.8430 0.3757 0
M  V30 61 H -7.7395 2.6692 0.9979 0
M  V30 62 H -7.8832 0.9031 3.0499 0
M  V30 63 H -11.1369 1.1430 5.7099 0
M  V30 END ATOM
M  V30 BEGIN BOND
M  V30 1 2 1 2
M  V30 2 1 2 3
M  V30 3 1 3 4
M  V30 4 2 4 5
M  V30 5 1 5 6
M  V30 6 2 6 7
M  V30 7 1 4 8
M  V30 8 2 8 9
M  V30 9 1 9 10
M  V30 10 2 10 11
M  V30 11 1 11 12
M  V30 12 3 12 13
M  V30 13 1 13 14
M  V30 14 2 14 15
M  V30 15 1 15 16
M  V30 16 2 16 17
M  V30 17 1 17 18
M  V30 18 3 18 19
M  V30 19 1 19 20
M  V30 20 2 20 21
M  V30 21 1 21 22
M  V30 22 2 22 23
M  V30 23 1 23 24
M  V30 24 1 24 25
M  V30 25 1 25 26
M  V30 26 2 26 27
M  V30 27 1 27 28
M  V30 28 2 28 29
M  V30 29 1 29 30
M  V30 30 1 26 31
M  V30 31 2 31 32
M  V30 32 1 32 33
M  V30 33 1 23 34
M  V30 34 2 34 35
M  V30 35 1 17 36
M  V30 36 1 11 37
M  V30 37 2 37 38
M  V30 38 2 3 39
M  V30 39 1 39 40
M  V30 40 2 40 41
M  V30 41 1 41 1
M  V30 42 1 7 2
M  V30 43 1 38 8
M  V30 44 1 36 14
M  V30 45 1 35 20
M  V30 46 2 33 24
M  V30 47 2 30 25
M  V30 48 1 1 42
M  V30 49 1 5 43
M  V30 50 1 6 44
M  V30 51 1 7 45
M  V30 52 1 9 46
M  V30 53 1 10 47
M  V30 54 1 15 48
M  V30 55 1 16 49
M  V30 56 1 21 50
M  V30 57 1 22 51
M  V30 58 1 27 52
M  V30 59 1 28 53
M  V30 60 1 30 54
M  V30 61 1 31 55
M  V30 62 1 32 56
M  V30 63 1 33 57
M  V30 64 1 34 58
M  V30 65 1 35 59
M  V30 66 1 37 60
M  V30 67 1 38 61
M  V30 68 1 39 62
M  V30 69 1 41 63
M  V30 END BOND
M  V30 END CTAB
M  END

$$$$
