
     RDKit          3D

  0  0  0  0  0  0  0  0  0  0999 V3000
M  V30 BEGIN CTAB
M  V30 COUNTS 63 69 0 0 0
M  V30 BEGIN ATOM
M  V30 1 C -12.3387 -1.9293 -1.3057 0
M  V30 2 C -11.5948 -1.1866 -0.3789 0
M  V30 3 C -10.2000 -1.0160 -0.5692 0
M  V30 4 C -9.4555 -0.2580 0.3719 0
M  V30 5 C -10.1106 0.2811 1.4920 0
M  V30 6 C -11.4820 0.1011 1.6713 0
M  V30 7 C -12.2239 -0.6219 0.7388 0
M  V30 8 C -8.0067 0.0041 0.2141 0
M  V30 9 C -7.0973 -0.4490 1.1837 0
M  V30 10 C -5.7308 -0.1884 1.0449 0
M  V30 11 C -5.2625 0.5365 -0.0581 0
M  V30 12 C -3.8559 0.8031 -0.2013 0
M  V30 13 C -2.6772 1.0256 -0.3210 0
M  V30 14 C -1.2734 1.2903 -0.4628 0
M  V30 15 C -0.7216 2.3895 -1.1071 0
M  V30 16 C 0.6781 2.3881 -1.0846 0
M  V30 17 C 1.2071 1.2877 -0.4231 0
M  V30 18 C 2.6050 1.0203 -0.2382 0
M  V30 19 C 3.7792 0.7971 -0.0820 0
M  V30 20 C 5.1810 0.5333 0.1060 0
M  V30 21 C 6.1264 1.5256 -0.1817 0
M  V30 22 C 7.4881 1.2726 0.0079 0
M  V30 23 C 7.9172 0.0194 0.4755 0
M  V30 24 C 9.3567 -0.2433 0.7019 0
M  V30 25 C 10.3142 -0.2009 -0.3453 0
M  V30 26 C 11.6848 -0.4105 -0.0455 0
M  V30 27 C 12.6377 -0.3609 -1.0711 0
M  V30 28 C 12.2243 -0.1211 -2.3807 0
M  V30 29 N 10.9074 0.0539 -2.6597 0
M  V30 30 C 9.9551 0.0168 -1.6912 0
M  V30 31 C 12.0815 -0.6759 1.2726 0
M  V30 32 C 11.1320 -0.7400 2.2914 0
M  V30 33 C 9.7818 -0.5266 2.0104 0
M  V30 34 C 6.9646 -0.9679 0.7732 0
M  V30 35 C 5.6027 -0.7129 0.5860 0
M  V30 36 S -0.0430 0.3135 0.1371 0
M  V30 37 C -6.1667 1.0040 -1.0197 0
M  V30 38 C -7.5335 0.7429 -0.8826 0
M  V30 39 C -9.6010 -1.6371 -1.6845 0
M  V30 40 N -10.3548 -2.3537 -2.5595 0
M  V30 41 C -11.6947 -2.5051 -2.3992 0
M  V30 42 H -13.4066 -2.0681 -1.1819 0
M  V30 43 H -9.5573 0.8583 2.2229 0
M  V30 44 H -11.9735 0.5293 2.5356 0
M  V30 45 H -13.2887 -0.7466 0.8949 0
M  V30 46 H -7.4465 -1.0097 2.0417 0
M  V30 47 H -5.0399 -0.5519 1.7962 0
M  V30 48 H -1.3086 3.1681 -1.5780 0
M  V30 49 H 1.2816 3.1653 -1.5354 0
M  V30 50 H 5.8107 2.4952 -0.5482 0
M  V30 51 H 8.2084 2.0527 -0.2062 0
M  V30 52 H 13.6905 -0.5108 -0.8628 0
M  V30 53 H 12.9520 -0.0819 -3.1797 0
M  V30 54 H 8.9230 0.1446 -1.9851 0
M  V30 55 H 13.1251 -0.8418 1.5136 0
M  V30 56 H 11.4439 -0.9501 3.3065 0
M  V30 57 H 9.0647 -0.5649 2.8221 0
M  V30 58 H 7.2775 -1.9357 1.1457 0
M  V30 59 H 4.8792 -1.4856 0.8164 0
M  V30 60 H -5.8156 1.5716 -1.8735 0
M  V30 61 H -8.2235 1.1160 -1.6296 0
M  V30 62 H -8.5367 -1.5726 -1.8616 0
M  V30 63 H -12.2600 -3.0826 -3.1187 0
M  V30 END ATOM
M  V30 BEGIN BOND
M  V30 1 2 1 2
M  V30 2 1 2 3
M  V30 3 1 3 4
M  V30 4 2 4 5
M  V30 5 1 5 6
M  V30 6 2 6 7
M  V30 7 1 4 8
M  V30 8 2 8 9
M  V30 9 1 9 10
M  V30 10 2 10 11
M  V30 11 1 11 12
M  V30 12 3 12 13
M  V30 13 1 13 14
M  V30 14 2 14 15
M  V30 15 1 15 16
M  V30 16 2 16 17
M  V30 17 1 17 18
M  V30 18 3 18 19
M  V30 19 1 19 20
M  V30 20 2 20 21
M  V30 21 1 21 22
M  V30 22 2 22 23
M  V30 23 1 23 24
M  V30 24 1 24 25
M  V30 25 1 25 26
M  V30 26 2 26 27
M  V30 27 1 27 28
M  V30 28 2 28 29
M  V30 29 1 29 30
M  V30 30 1 26 31
M  V30 31 2 31 32
M  V30 32 1 32 33
M  V30 33 1 23 34
M  V30 34 2 34 35
M  V30 35 1 17 36
M  V30 36 1 11 37
M  V30 37 2 37 38
M  V30 38 2 3 39
M  V30 39 1 39 40
M  V30 40 2 40 41
M  V30 41 1 41 1
M  V30 42 1 7 2
M  V30 43 1 38 8
M  V30 44 1 36 14
M  V30 45 1 35 20
M  V30 46 2 33 24
M  V30 47 2 30 25
M  V30 48 1 1 42
M  V30 49 1 5 43
M  V30 50 1 6 44
M  V30 51 1 7 45
M  V30 52 1 9 46
M  V30 53 1 10 47
M  V30 54 1 15 48
M  V30 55 1 16 49
M  V30 56 1 21 50
M  V30 57 1 22 51
M  V30 58 1 27 52
M  V30 59 1 28 53
M  V30 60 1 30 54
M  V30 61 1 31 55
M  V30 62 1 32 56
M  V30 63 1 33 57
M  V30 64 1 34 58
M  V30 65 1 35 59
M  V30 66 1 37 60
M  V30 67 1 38 61
M  V30 68 1 39 62
M  V30 69 1 41 63
M  V30 END BOND
M  V30 END CTAB
M  END

$$$$
