
     RDKit          3D

  0  0  0  0  0  0  0  0  0  0999 V3000
M  V30 BEGIN CTAB
M  V30 COUNTS 63 69 0 0 0
M  V30 BEGIN ATOM
M  V30 1 C 11.7433 -0.1962 4.1333 0
M  V30 2 C 11.1521 -0.7901 3.0108 0
M  V30 3 C 9.8035 -0.4954 2.6836 0
M  V30 4 C 9.2179 -1.0942 1.5368 0
M  V30 5 C 9.9744 -1.9989 0.7726 0
M  V30 6 C 11.2953 -2.2901 1.1129 0
M  V30 7 C 11.8872 -1.6823 2.2191 0
M  V30 8 C 7.8407 -0.7821 1.0889 0
M  V30 9 C 7.4902 0.5300 0.7290 0
M  V30 10 C 6.2003 0.8159 0.2711 0
M  V30 11 C 5.2526 -0.2088 0.1598 0
M  V30 12 C 3.9285 0.0837 -0.3228 0
M  V30 13 C 2.8214 0.3299 -0.7314 0
M  V30 14 C 1.5045 0.6237 -1.2216 0
M  V30 15 C 1.2143 1.3909 -2.3401 0
M  V30 16 C -0.1596 1.5005 -2.5854 0
M  V30 17 C -0.9316 0.8185 -1.6549 0
M  V30 18 C -2.3642 0.7336 -1.6616 0
M  V30 19 C -3.5671 0.6586 -1.6699 0
M  V30 20 C -5.0033 0.5661 -1.6827 0
M  V30 21 C -5.6807 0.0056 -0.5923 0
M  V30 22 C -7.0749 -0.0922 -0.6086 0
M  V30 23 C -7.8058 0.3821 -1.7104 0
M  V30 24 C -9.2812 0.2584 -1.7404 0
M  V30 25 C -10.1196 0.8895 -0.7844 0
M  V30 26 C -11.5214 0.6820 -0.8427 0
M  V30 27 C -12.3562 1.2947 0.1011 0
M  V30 28 C -11.7992 2.1158 1.0797 0
M  V30 29 N -10.4584 2.3259 1.1117 0
M  V30 30 C -9.6167 1.7455 0.2166 0
M  V30 31 C -12.0691 -0.1267 -1.8479 0
M  V30 32 C -11.2413 -0.7233 -2.7973 0
M  V30 33 C -9.8607 -0.5324 -2.7464 0
M  V30 34 C -7.1209 0.9320 -2.8061 0
M  V30 35 C -5.7259 1.0278 -2.7897 0
M  V30 36 S 0.0727 0.0766 -0.5298 0
M  V30 37 C 5.6000 -1.5210 0.5055 0
M  V30 38 C 6.8897 -1.8073 0.9618 0
M  V30 39 C 9.0868 0.3671 3.5386 0
M  V30 40 N 9.6929 0.9200 4.6221 0
M  V30 41 C 10.9917 0.6672 4.9277 0
M  V30 42 H 12.7744 -0.4026 4.3958 0
M  V30 43 H 9.5442 -2.4675 -0.1049 0
M  V30 44 H 11.8667 -2.9836 0.5092 0
M  V30 45 H 12.9171 -1.9163 2.4616 0
M  V30 46 H 8.2179 1.3293 0.7983 0
M  V30 47 H 5.9454 1.8328 -0.0019 0
M  V30 48 H 1.9687 1.8519 -2.9637 0
M  V30 49 H -0.5719 2.0530 -3.4188 0
M  V30 50 H -5.1312 -0.3600 0.2667 0
M  V30 51 H -7.5858 -0.5395 0.2355 0
M  V30 52 H -13.4289 1.1444 0.0784 0
M  V30 53 H -12.4358 2.5970 1.8098 0
M  V30 54 H -8.5620 1.9700 0.2878 0
M  V30 55 H -13.1387 -0.2907 -1.9036 0
M  V30 56 H -11.6710 -1.3434 -3.5736 0
M  V30 57 H -9.2371 -1.0197 -3.4863 0
M  V30 58 H -7.6680 1.2921 -3.6692 0
M  V30 59 H -5.2112 1.4598 -3.6399 0
M  V30 60 H 4.8755 -2.3222 0.4188 0
M  V30 61 H 7.1469 -2.8267 1.2205 0
M  V30 62 H 8.0447 0.5955 3.3653 0
M  V30 63 H 11.4380 1.1292 5.7981 0
M  V30 END ATOM
M  V30 BEGIN BOND
M  V30 1 2 1 2
M  V30 2 1 2 3
M  V30 3 1 3 4
M  V30 4 2 4 5
M  V30 5 1 5 6
M  V30 6 2 6 7
M  V30 7 1 4 8
M  V30 8 2 8 9
M  V30 9 1 9 10
M  V30 10 2 10 11
M  V30 11 1 11 12
M  V30 12 3 12 13
M  V30 13 1 13 14
M  V30 14 2 14 15
M  V30 15 1 15 16
M  V30 16 2 16 17
M  V30 17 1 17 18
M  V30 18 3 18 19
M  V30 19 1 19 20
M  V30 20 2 20 21
M  V30 21 1 21 22
M  V30 22 2 22 23
M  V30 23 1 23 24
M  V30 24 1 24 25
M  V30 25 1 25 26
M  V30 26 2 26 27
M  V30 27 1 27 28
M  V30 28 2 28 29
M  V30 29 1 29 30
M  V30 30 1 26 31
M  V30 31 2 31 32
M  V30 32 1 32 33
M  V30 33 1 23 34
M  V30 34 2 34 35
M  V30 35 1 17 36
M  V30 36 1 11 37
M  V30 37 2 37 38
M  V30 38 2 3 39
M  V30 39 1 39 40
M  V30 40 2 40 41
M  V30 41 1 41 1
M  V30 42 1 7 2
M  V30 43 1 38 8
M  V30 44 1 36 14
M  V30 45 1 35 20
M  V30 46 2 33 24
M  V30 47 2 30 25
M  V30 48 1 1 42
M  V30 49 1 5 43
M  V30 50 1 6 44
M  V30 51 1 7 45
M  V30 52 1 9 46
M  V30 53 1 10 47
M  V30 54 1 15 48
M  V30 55 1 16 49
M  V30 56 1 21 50
M  V30 57 1 22 51
M  V30 58 1 27 52
M  V30 59 1 28 53
M  V30 60 1 30 54
M  V30 61 1 31 55
M  V30 62 1 32 56
M  V30 63 1 33 57
M  V30 64 1 34 58
M  V30 65 1 35 59
M  V30 66 1 37 60
M  V30 67 1 38 61
M  V30 68 1 39 62
M  V30 69 1 41 63
M  V30 END BOND
M  V30 END CTAB
M  END

$$$$
