
     RDKit          3D

  0  0  0  0  0  0  0  0  0  0999 V3000
M  V30 BEGIN CTAB
M  V30 COUNTS 63 69 0 0 0
M  V30 BEGIN ATOM
M  V30 1 C -12.2429 -1.1379 0.8913 0
M  V30 2 C -11.4938 -0.1937 0.1768 0
M  V30 3 C -10.1025 -0.3941 -0.0122 0
M  V30 4 C -9.3506 0.5707 -0.7324 0
M  V30 5 C -10.0060 1.6898 -1.2718 0
M  V30 6 C -11.3762 1.8729 -1.0844 0
M  V30 7 C -12.1176 0.9416 -0.3588 0
M  V30 8 C -7.8872 0.4558 -0.9258 0
M  V30 9 C -7.0204 0.4786 0.1791 0
M  V30 10 C -5.6377 0.3910 -0.0078 0
M  V30 11 C -5.1089 0.2901 -1.3006 0
M  V30 12 C -3.6855 0.2007 -1.4922 0
M  V30 13 C -2.4930 0.1260 -1.6511 0
M  V30 14 C -1.0725 0.0375 -1.8383 0
M  V30 15 C -0.4236 -0.0311 -3.0639 0
M  V30 16 C 0.9686 -0.1074 -2.9399 0
M  V30 17 C 1.3951 -0.0978 -1.6186 0
M  V30 18 C 2.7615 -0.1617 -1.1833 0
M  V30 19 C 3.9083 -0.2144 -0.8160 0
M  V30 20 C 5.2768 -0.2762 -0.3754 0
M  V30 21 C 6.1293 0.8163 -0.5781 0
M  V30 22 C 7.4579 0.7582 -0.1467 0
M  V30 23 C 7.9427 -0.3904 0.5002 0
M  V30 24 C 9.3544 -0.4626 0.9406 0
M  V30 25 C 9.8959 0.4191 1.9123 0
M  V30 26 C 11.2702 0.3242 2.2502 0
M  V30 27 C 11.8146 1.1940 3.2043 0
M  V30 28 C 10.9936 2.1357 3.8224 0
M  V30 29 N 9.6748 2.2028 3.5071 0
M  V30 30 C 9.1119 1.3790 2.5843 0
M  V30 31 C 12.0774 -0.6441 1.6375 0
M  V30 32 C 11.5326 -1.5213 0.7009 0
M  V30 33 C 10.1837 -1.4339 0.3559 0
M  V30 34 C 7.0882 -1.4884 0.6878 0
M  V30 35 C 5.7595 -1.4293 0.2561 0
M  V30 36 S 0.0626 0.0050 -0.5986 0
M  V30 37 C -5.9682 0.2809 -2.4065 0
M  V30 38 C -7.3513 0.3680 -2.2205 0
M  V30 39 C -9.5248 -1.5709 0.5066 0
M  V30 40 N -10.2847 -2.4662 1.1908 0
M  V30 41 C -11.6127 -2.2739 1.3969 0
M  V30 42 H -13.3058 -1.0015 1.0524 0
M  V30 43 H -9.4484 2.4348 -1.8267 0
M  V30 44 H -11.8650 2.7450 -1.4995 0
M  V30 45 H -13.1803 1.1046 -0.2226 0
M  V30 46 H -7.4166 0.5663 1.1835 0
M  V30 47 H -4.9816 0.4052 0.8543 0
M  V30 48 H -0.9367 -0.0253 -4.0168 0
M  V30 49 H 1.6391 -0.1665 -3.7876 0
M  V30 50 H 5.7676 1.7108 -1.0709 0
M  V30 51 H 8.1097 1.6064 -0.3171 0
M  V30 52 H 12.8630 1.1423 3.4732 0
M  V30 53 H 11.4040 2.8103 4.5618 0
M  V30 54 H 8.0521 1.4735 2.3944 0
M  V30 55 H 13.1282 -0.7274 1.8888 0
M  V30 56 H 12.1604 -2.2700 0.2350 0
M  V30 57 H 9.7865 -2.1172 -0.3852 0
M  V30 58 H 7.4494 -2.3859 1.1749 0
M  V30 59 H 5.1095 -2.2816 0.4143 0
M  V30 60 H -5.5693 0.2076 -3.4112 0
M  V30 61 H -8.0053 0.3602 -3.0840 0
M  V30 62 H -8.4772 -1.7948 0.3629 0
M  V30 63 H -12.1828 -3.0099 1.9479 0
M  V30 END ATOM
M  V30 BEGIN BOND
M  V30 1 2 1 2
M  V30 2 1 2 3
M  V30 3 1 3 4
M  V30 4 2 4 5
M  V30 5 1 5 6
M  V30 6 2 6 7
M  V30 7 1 4 8
M  V30 8 2 8 9
M  V30 9 1 9 10
M  V30 10 2 10 11
M  V30 11 1 11 12
M  V30 12 3 12 13
M  V30 13 1 13 14
M  V30 14 2 14 15
M  V30 15 1 15 16
M  V30 16 2 16 17
M  V30 17 1 17 18
M  V30 18 3 18 19
M  V30 19 1 19 20
M  V30 20 2 20 21
M  V30 21 1 21 22
M  V30 22 2 22 23
M  V30 23 1 23 24
M  V30 24 1 24 25
M  V30 25 1 25 26
M  V30 26 2 26 27
M  V30 27 1 27 28
M  V30 28 2 28 29
M  V30 29 1 29 30
M  V30 30 1 26 31
M  V30 31 2 31 32
M  V30 32 1 32 33
M  V30 33 1 23 34
M  V30 34 2 34 35
M  V30 35 1 17 36
M  V30 36 1 11 37
M  V30 37 2 37 38
M  V30 38 2 3 39
M  V30 39 1 39 40
M  V30 40 2 40 41
M  V30 41 1 41 1
M  V30 42 1 7 2
M  V30 43 1 38 8
M  V30 44 1 36 14
M  V30 45 1 35 20
M  V30 46 2 33 24
M  V30 47 2 30 25
M  V30 48 1 1 42
M  V30 49 1 5 43
M  V30 50 1 6 44
M  V30 51 1 7 45
M  V30 52 1 9 46
M  V30 53 1 10 47
M  V30 54 1 15 48
M  V30 55 1 16 49
M  V30 56 1 21 50
M  V30 57 1 22 51
M  V30 58 1 27 52
M  V30 59 1 28 53
M  V30 60 1 30 54
M  V30 61 1 31 55
M  V30 62 1 32 56
M  V30 63 1 33 57
M  V30 64 1 34 58
M  V30 65 1 35 59
M  V30 66 1 37 60
M  V30 67 1 38 61
M  V30 68 1 39 62
M  V30 69 1 41 63
M  V30 END BOND
M  V30 END CTAB
M  END

$$$$
