
     RDKit          3D

  0  0  0  0  0  0  0  0  0  0999 V3000
M  V30 BEGIN CTAB
M  V30 COUNTS 63 69 0 0 0
M  V30 BEGIN ATOM
M  V30 1 C -12.4777 -1.2127 1.2460 0
M  V30 2 C -11.6334 -0.3847 0.4944 0
M  V30 3 C -10.2338 -0.4116 0.7224 0
M  V30 4 C -9.3868 0.4348 -0.0399 0
M  V30 5 C -9.9491 1.2596 -1.0282 0
M  V30 6 C -11.3267 1.2729 -1.2472 0
M  V30 7 C -12.1676 0.4614 -0.4871 0
M  V30 8 C -7.9235 0.4990 0.1760 0
M  V30 9 C -7.4049 0.9412 1.4041 0
M  V30 10 C -6.0226 1.0210 1.5978 0
M  V30 11 C -5.1471 0.6693 0.5629 0
M  V30 12 C -3.7244 0.7519 0.7626 0
M  V30 13 C -2.5327 0.8208 0.9300 0
M  V30 14 C -1.1134 0.9026 1.1293 0
M  V30 15 C -0.4864 1.3170 2.2967 0
M  V30 16 C 0.9100 1.2949 2.2027 0
M  V30 17 C 1.3617 0.8635 0.9627 0
M  V30 18 C 2.7382 0.7376 0.5752 0
M  V30 19 C 3.8939 0.6316 0.2497 0
M  V30 20 C 5.2737 0.5048 -0.1390 0
M  V30 21 C 5.6744 0.8640 -1.4320 0
M  V30 22 C 7.0148 0.7408 -1.8103 0
M  V30 23 C 7.9645 0.2483 -0.9011 0
M  V30 24 C 9.3871 0.1403 -1.2967 0
M  V30 25 C 10.0814 -1.0977 -1.3161 0
M  V30 26 C 11.4577 -1.1192 -1.6580 0
M  V30 27 C 12.1525 -2.3359 -1.6743 0
M  V30 28 C 11.4772 -3.5161 -1.3675 0
M  V30 29 N 10.1545 -3.4861 -1.0632 0
M  V30 30 C 9.4484 -2.3253 -1.0332 0
M  V30 31 C 12.1168 0.0730 -1.9879 0
M  V30 32 C 11.4222 1.2817 -1.9886 0
M  V30 33 C 10.0698 1.3165 -1.6483 0
M  V30 34 C 7.5600 -0.0975 0.3987 0
M  V30 35 C 6.2194 0.0257 0.7760 0
M  V30 36 S 0.0463 0.5078 -0.0221 0
M  V30 37 C -5.6593 0.2410 -0.6682 0
M  V30 38 C -7.0416 0.1605 -0.8627 0
M  V30 39 C -9.7358 -1.3089 1.6891 0
M  V30 40 N -10.5858 -2.0997 2.3958 0
M  V30 41 C -11.9290 -2.0662 2.2016 0
M  V30 42 H -13.5502 -1.2037 1.0920 0
M  V30 43 H -9.3174 1.9099 -1.6216 0
M  V30 44 H -11.7452 1.9204 -2.0070 0
M  V30 45 H -13.2351 0.4894 -0.6716 0
M  V30 46 H -8.0717 1.2254 2.2090 0
M  V30 47 H -5.6370 1.3594 2.5521 0
M  V30 48 H -1.0180 1.6252 3.1877 0
M  V30 49 H 1.5656 1.5843 3.0139 0
M  V30 50 H 4.9515 1.2397 -2.1463 0
M  V30 51 H 7.3120 1.0225 -2.8131 0
M  V30 52 H 13.2054 -2.3743 -1.9272 0
M  V30 53 H 12.0042 -4.4608 -1.3795 0
M  V30 54 H 8.3939 -2.3749 -0.8015 0
M  V30 55 H 13.1677 0.0689 -2.2525 0
M  V30 56 H 11.9359 2.1981 -2.2491 0
M  V30 57 H 9.5549 2.2698 -1.6420 0
M  V30 58 H 8.2836 -0.4601 1.1186 0
M  V30 59 H 5.9212 -0.2493 1.7807 0
M  V30 60 H -4.9908 -0.0294 -1.4768 0
M  V30 61 H -7.4252 -0.1718 -1.8197 0
M  V30 62 H -8.6760 -1.3992 1.8808 0
M  V30 63 H -12.5722 -2.7110 2.7855 0
M  V30 END ATOM
M  V30 BEGIN BOND
M  V30 1 2 1 2
M  V30 2 1 2 3
M  V30 3 1 3 4
M  V30 4 2 4 5
M  V30 5 1 5 6
M  V30 6 2 6 7
M  V30 7 1 4 8
M  V30 8 2 8 9
M  V30 9 1 9 10
M  V30 10 2 10 11
M  V30 11 1 11 12
M  V30 12 3 12 13
M  V30 13 1 13 14
M  V30 14 2 14 15
M  V30 15 1 15 16
M  V30 16 2 16 17
M  V30 17 1 17 18
M  V30 18 3 18 19
M  V30 19 1 19 20
M  V30 20 2 20 21
M  V30 21 1 21 22
M  V30 22 2 22 23
M  V30 23 1 23 24
M  V30 24 1 24 25
M  V30 25 1 25 26
M  V30 26 2 26 27
M  V30 27 1 27 28
M  V30 28 2 28 29
M  V30 29 1 29 30
M  V30 30 1 26 31
M  V30 31 2 31 32
M  V30 32 1 32 33
M  V30 33 1 23 34
M  V30 34 2 34 35
M  V30 35 1 17 36
M  V30 36 1 11 37
M  V30 37 2 37 38
M  V30 38 2 3 39
M  V30 39 1 39 40
M  V30 40 2 40 41
M  V30 41 1 41 1
M  V30 42 1 7 2
M  V30 43 1 38 8
M  V30 44 1 36 14
M  V30 45 1 35 20
M  V30 46 2 33 24
M  V30 47 2 30 25
M  V30 48 1 1 42
M  V30 49 1 5 43
M  V30 50 1 6 44
M  V30 51 1 7 45
M  V30 52 1 9 46
M  V30 53 1 10 47
M  V30 54 1 15 48
M  V30 55 1 16 49
M  V30 56 1 21 50
M  V30 57 1 22 51
M  V30 58 1 27 52
M  V30 59 1 28 53
M  V30 60 1 30 54
M  V30 61 1 31 55
M  V30 62 1 32 56
M  V30 63 1 33 57
M  V30 64 1 34 58
M  V30 65 1 35 59
M  V30 66 1 37 60
M  V30 67 1 38 61
M  V30 68 1 39 62
M  V30 69 1 41 63
M  V30 END BOND
M  V30 END CTAB
M  END

$$$$
