
     RDKit          3D

  0  0  0  0  0  0  0  0  0  0999 V3000
M  V30 BEGIN CTAB
M  V30 COUNTS 63 69 0 0 0
M  V30 BEGIN ATOM
M  V30 1 C -12.4116 -1.1483 0.6419 0
M  V30 2 C -11.5523 -0.1556 1.1312 0
M  V30 3 C -10.1763 -0.1822 0.7879 0
M  V30 4 C -9.3145 0.8311 1.2832 0
M  V30 5 C -9.8356 1.8224 2.1311 0
M  V30 6 C -11.1896 1.8344 2.4666 0
M  V30 7 C -12.0472 0.8562 1.9654 0
M  V30 8 C -7.8793 0.8992 0.9259 0
M  V30 9 C -6.8981 0.8133 1.9265 0
M  V30 10 C -5.5427 0.8993 1.5938 0
M  V30 11 C -5.1571 1.0811 0.2598 0
M  V30 12 C -3.7621 1.1693 -0.0822 0
M  V30 13 C -2.5937 1.2430 -0.3690 0
M  V30 14 C -1.2022 1.3304 -0.7109 0
M  V30 15 C -0.6788 2.0445 -1.7804 0
M  V30 16 C 0.7148 1.9479 -1.8704 0
M  V30 17 C 1.2677 1.1590 -0.8706 0
M  V30 18 C 2.6661 0.8783 -0.7087 0
M  V30 19 C 3.8403 0.6421 -0.5726 0
M  V30 20 C 5.2419 0.3599 -0.4099 0
M  V30 21 C 5.7697 0.1404 0.8686 0
M  V30 22 C 7.1315 -0.1342 1.0274 0
M  V30 23 C 7.9753 -0.2012 -0.0926 0
M  V30 24 C 9.4209 -0.4704 0.0802 0
M  V30 25 C 10.0588 -1.6042 -0.4876 0
M  V30 26 C 11.4572 -1.7729 -0.3213 0
M  V30 27 C 12.0962 -2.8863 -0.8826 0
M  V30 28 C 11.3453 -3.8254 -1.5878 0
M  V30 29 N 10.0039 -3.6651 -1.7218 0
M  V30 30 C 9.3499 -2.5966 -1.1950 0
M  V30 31 C 12.1945 -0.8324 0.4112 0
M  V30 32 C 11.5568 0.2666 0.9847 0
M  V30 33 C 10.1829 0.4464 0.8232 0
M  V30 34 C 7.4438 0.0333 -1.3714 0
M  V30 35 C 6.0820 0.3078 -1.5292 0
M  V30 36 S 0.0458 0.5778 0.1272 0
M  V30 37 C -6.1323 1.1810 -0.7403 0
M  V30 38 C -7.4878 1.0956 -0.4086 0
M  V30 39 C -9.7136 -1.2423 -0.0181 0
M  V30 40 N -10.5768 -2.1897 -0.4705 0
M  V30 41 C -11.8996 -2.1617 -0.1669 0
M  V30 42 H -13.4671 -1.1435 0.8868 0
M  V30 43 H -9.1918 2.6018 2.5209 0
M  V30 44 H -11.5773 2.6101 3.1143 0
M  V30 45 H -13.0961 0.8859 2.2360 0
M  V30 46 H -7.1834 0.6729 2.9620 0
M  V30 47 H -4.7965 0.8251 2.3758 0
M  V30 48 H -1.2815 2.6167 -2.4738 0
M  V30 49 H 1.2967 2.4381 -2.6403 0
M  V30 50 H 5.1293 0.1826 1.7415 0
M  V30 51 H 7.5275 -0.3016 2.0216 0
M  V30 52 H 13.1643 -3.0317 -0.7723 0
M  V30 53 H 11.8291 -4.6897 -2.0230 0
M  V30 54 H 8.2782 -2.5400 -1.3229 0
M  V30 55 H 13.2631 -0.9514 0.5465 0
M  V30 56 H 12.1312 0.9866 1.5532 0
M  V30 57 H 9.7121 1.3159 1.2663 0
M  V30 58 H 8.0850 0.0052 -2.2440 0
M  V30 59 H 5.6852 0.4820 -2.5222 0
M  V30 60 H -5.8451 1.3278 -1.7746 0
M  V30 61 H -8.2329 1.1842 -1.1898 0
M  V30 62 H -8.6697 -1.3349 -0.2821 0
M  V30 63 H -12.5545 -2.9339 -0.5477 0
M  V30 END ATOM
M  V30 BEGIN BOND
M  V30 1 2 1 2
M  V30 2 1 2 3
M  V30 3 1 3 4
M  V30 4 2 4 5
M  V30 5 1 5 6
M  V30 6 2 6 7
M  V30 7 1 4 8
M  V30 8 2 8 9
M  V30 9 1 9 10
M  V30 10 2 10 11
M  V30 11 1 11 12
M  V30 12 3 12 13
M  V30 13 1 13 14
M  V30 14 2 14 15
M  V30 15 1 15 16
M  V30 16 2 16 17
M  V30 17 1 17 18
M  V30 18 3 18 19
M  V30 19 1 19 20
M  V30 20 2 20 21
M  V30 21 1 21 22
M  V30 22 2 22 23
M  V30 23 1 23 24
M  V30 24 1 24 25
M  V30 25 1 25 26
M  V30 26 2 26 27
M  V30 27 1 27 28
M  V30 28 2 28 29
M  V30 29 1 29 30
M  V30 30 1 26 31
M  V30 31 2 31 32
M  V30 32 1 32 33
M  V30 33 1 23 34
M  V30 34 2 34 35
M  V30 35 1 17 36
M  V30 36 1 11 37
M  V30 37 2 37 38
M  V30 38 2 3 39
M  V30 39 1 39 40
M  V30 40 2 40 41
M  V30 41 1 41 1
M  V30 42 1 7 2
M  V30 43 1 38 8
M  V30 44 1 36 14
M  V30 45 1 35 20
M  V30 46 2 33 24
M  V30 47 2 30 25
M  V30 48 1 1 42
M  V30 49 1 5 43
M  V30 50 1 6 44
M  V30 51 1 7 45
M  V30 52 1 9 46
M  V30 53 1 10 47
M  V30 54 1 15 48
M  V30 55 1 16 49
M  V30 56 1 21 50
M  V30 57 1 22 51
M  V30 58 1 27 52
M  V30 59 1 28 53
M  V30 60 1 30 54
M  V30 61 1 31 55
M  V30 62 1 32 56
M  V30 63 1 33 57
M  V30 64 1 34 58
M  V30 65 1 35 59
M  V30 66 1 37 60
M  V30 67 1 38 61
M  V30 68 1 39 62
M  V30 69 1 41 63
M  V30 END BOND
M  V30 END CTAB
M  END

$$$$
