
     RDKit          3D

  0  0  0  0  0  0  0  0  0  0999 V3000
M  V30 BEGIN CTAB
M  V30 COUNTS 63 69 0 0 0
M  V30 BEGIN ATOM
M  V30 1 C 11.9090 -2.6423 -0.8763 0
M  V30 2 C 11.3269 -1.6599 -0.0645 0
M  V30 3 C 9.9596 -1.3229 -0.2355 0
M  V30 4 C 9.3768 -0.3308 0.5956 0
M  V30 5 C 10.1748 0.3216 1.5499 0
M  V30 6 C 11.5201 -0.0144 1.7047 0
M  V30 7 C 12.0943 -1.0042 0.9082 0
M  V30 8 C 7.9451 0.0359 0.5110 0
M  V30 9 C 6.9506 -0.9124 0.8005 0
M  V30 10 C 5.5996 -0.5591 0.7361 0
M  V30 11 C 5.2313 0.7471 0.3910 0
M  V30 12 C 3.8405 1.1095 0.3200 0
M  V30 13 C 2.6759 1.4139 0.2585 0
M  V30 14 C 1.2893 1.7777 0.1831 0
M  V30 15 C 0.8039 3.0657 0.0006 0
M  V30 16 C -0.5941 3.1209 -0.0388 0
M  V30 17 C -1.1887 1.8756 0.1135 0
M  V30 18 C -2.6015 1.6214 0.1109 0
M  V30 19 C -3.7878 1.4076 0.1078 0
M  V30 20 C -5.2038 1.1511 0.1033 0
M  V30 21 C -6.0466 1.8783 -0.7468 0
M  V30 22 C -7.4220 1.6265 -0.7540 0
M  V30 23 C -7.9646 0.6388 0.0830 0
M  V30 24 C -9.4234 0.3866 0.0877 0
M  V30 25 C -9.9808 -0.8691 -0.2692 0
M  V30 26 C -11.3849 -1.0556 -0.1917 0
M  V30 27 C -11.9432 -2.2939 -0.5356 0
M  V30 28 C -11.1109 -3.3265 -0.9654 0
M  V30 29 N -9.7705 -3.1296 -1.0570 0
M  V30 30 C -9.1925 -1.9443 -0.7280 0
M  V30 31 C -12.2105 0.0000 0.2194 0
M  V30 32 C -11.6571 1.2373 0.5460 0
M  V30 33 C -10.2770 1.4310 0.4796 0
M  V30 34 C -7.1172 -0.0773 0.9442 0
M  V30 35 C -5.7422 0.1748 0.9504 0
M  V30 36 S 0.0020 0.7024 0.2960 0
M  V30 37 C 6.2196 1.7002 0.1161 0
M  V30 38 C 7.5710 1.3478 0.1806 0
M  V30 39 C 9.2369 -1.9771 -1.2542 0
M  V30 40 N 9.8370 -2.9221 -2.0249 0
M  V30 41 C 11.1389 -3.2685 -1.8552 0
M  V30 42 H 12.9502 -2.9192 -0.7586 0
M  V30 43 H 9.7476 1.0840 2.1905 0
M  V30 44 H 12.1195 0.4922 2.4506 0
M  V30 45 H 13.1403 -1.2522 1.0468 0
M  V30 46 H 7.2232 -1.9237 1.0761 0
M  V30 47 H 4.8435 -1.3028 0.9567 0
M  V30 48 H 1.4369 3.9376 -0.1023 0
M  V30 49 H -1.1496 4.0399 -0.1753 0
M  V30 50 H -5.6407 2.6387 -1.4031 0
M  V30 51 H -8.0633 2.1945 -1.4167 0
M  V30 52 H -13.0126 -2.4599 -0.4778 0
M  V30 53 H -11.5327 -4.2855 -1.2354 0
M  V30 54 H -8.1217 -1.8492 -0.8411 0
M  V30 55 H -13.2848 -0.1297 0.2811 0
M  V30 56 H -12.3007 2.0498 0.8584 0
M  V30 57 H -9.8694 2.3969 0.7530 0
M  V30 58 H -7.5224 -0.8289 1.6102 0
M  V30 59 H -5.1002 -0.3896 1.6161 0
M  V30 60 H 5.9456 2.7144 -0.1479 0
M  V30 61 H 8.3256 2.0940 -0.0346 0
M  V30 62 H 8.2023 -1.7363 -1.4546 0
M  V30 63 H 11.5799 -4.0267 -2.4884 0
M  V30 END ATOM
M  V30 BEGIN BOND
M  V30 1 2 1 2
M  V30 2 1 2 3
M  V30 3 1 3 4
M  V30 4 2 4 5
M  V30 5 1 5 6
M  V30 6 2 6 7
M  V30 7 1 4 8
M  V30 8 2 8 9
M  V30 9 1 9 10
M  V30 10 2 10 11
M  V30 11 1 11 12
M  V30 12 3 12 13
M  V30 13 1 13 14
M  V30 14 2 14 15
M  V30 15 1 15 16
M  V30 16 2 16 17
M  V30 17 1 17 18
M  V30 18 3 18 19
M  V30 19 1 19 20
M  V30 20 2 20 21
M  V30 21 1 21 22
M  V30 22 2 22 23
M  V30 23 1 23 24
M  V30 24 1 24 25
M  V30 25 1 25 26
M  V30 26 2 26 27
M  V30 27 1 27 28
M  V30 28 2 28 29
M  V30 29 1 29 30
M  V30 30 1 26 31
M  V30 31 2 31 32
M  V30 32 1 32 33
M  V30 33 1 23 34
M  V30 34 2 34 35
M  V30 35 1 17 36
M  V30 36 1 11 37
M  V30 37 2 37 38
M  V30 38 2 3 39
M  V30 39 1 39 40
M  V30 40 2 40 41
M  V30 41 1 41 1
M  V30 42 1 7 2
M  V30 43 1 38 8
M  V30 44 1 36 14
M  V30 45 1 35 20
M  V30 46 2 33 24
M  V30 47 2 30 25
M  V30 48 1 1 42
M  V30 49 1 5 43
M  V30 50 1 6 44
M  V30 51 1 7 45
M  V30 52 1 9 46
M  V30 53 1 10 47
M  V30 54 1 15 48
M  V30 55 1 16 49
M  V30 56 1 21 50
M  V30 57 1 22 51
M  V30 58 1 27 52
M  V30 59 1 28 53
M  V30 60 1 30 54
M  V30 61 1 31 55
M  V30 62 1 32 56
M  V30 63 1 33 57
M  V30 64 1 34 58
M  V30 65 1 35 59
M  V30 66 1 37 60
M  V30 67 1 38 61
M  V30 68 1 39 62
M  V30 69 1 41 63
M  V30 END BOND
M  V30 END CTAB
M  END

$$$$
