
     RDKit          3D

  0  0  0  0  0  0  0  0  0  0999 V3000
M  V30 BEGIN CTAB
M  V30 COUNTS 63 69 0 0 0
M  V30 BEGIN ATOM
M  V30 1 C 11.9549 1.5787 0.4843 0
M  V30 2 C 11.3622 0.3877 0.0420 0
M  V30 3 C 9.9565 0.2191 0.1374 0
M  V30 4 C 9.3657 -0.9918 -0.3143 0
M  V30 5 C 10.1847 -1.9897 -0.8683 0
M  V30 6 C 11.5652 -1.8061 -0.9662 0
M  V30 7 C 12.1544 -0.6281 -0.5089 0
M  V30 8 C 7.9069 -1.2394 -0.2437 0
M  V30 9 C 7.1749 -1.4612 -1.4206 0
M  V30 10 C 5.7935 -1.6641 -1.3649 0
M  V30 11 C 5.1313 -1.6581 -0.1318 0
M  V30 12 C 3.7015 -1.8161 -0.0845 0
M  V30 13 C 2.5020 -1.9305 -0.0563 0
M  V30 14 C 1.0725 -2.0459 -0.0332 0
M  V30 15 C 0.3557 -3.2356 -0.0305 0
M  V30 16 C -1.0299 -3.0380 -0.0463 0
M  V30 17 C -1.3821 -1.6932 -0.0605 0
M  V30 18 C -2.7203 -1.1758 -0.1059 0
M  V30 19 C -3.8344 -0.7168 -0.1487 0
M  V30 20 C -5.1535 -0.1439 -0.2034 0
M  V30 21 C -5.3048 1.2430 -0.3257 0
M  V30 22 C -6.5827 1.8070 -0.3787 0
M  V30 23 C -7.7200 0.9883 -0.2993 0
M  V30 24 C -9.0709 1.5865 -0.3774 0
M  V30 25 C -9.9889 1.5323 0.7023 0
M  V30 26 C -11.2828 2.0900 0.5450 0
M  V30 27 C -12.1999 2.0326 1.6036 0
M  V30 28 C -11.8208 1.4406 2.8084 0
M  V30 29 N -10.5696 0.9316 2.9551 0
M  V30 30 C -9.6561 0.9639 1.9491 0
M  V30 31 C -11.6400 2.7016 -0.6648 0
M  V30 32 C -10.7218 2.7732 -1.7128 0
M  V30 33 C -9.4503 2.2194 -1.5729 0
M  V30 34 C -7.5645 -0.4032 -0.1864 0
M  V30 35 C -6.2863 -0.9659 -0.1379 0
M  V30 36 S 0.0070 -0.7470 -0.0630 0
M  V30 37 C 5.8608 -1.4667 1.0492 0
M  V30 38 C 7.2439 -1.2663 0.9940 0
M  V30 39 C 9.1944 1.2868 0.6561 0
M  V30 40 N 9.8043 2.4250 1.0783 0
M  V30 41 C 11.1506 2.5894 1.0101 0
M  V30 42 H 13.0275 1.7293 0.4222 0
M  V30 43 H 9.7536 -2.9160 -1.2293 0
M  V30 44 H 12.1807 -2.5865 -1.3963 0
M  V30 45 H 13.2276 -0.5110 -0.5870 0
M  V30 46 H 7.6697 -1.4533 -2.3843 0
M  V30 47 H 5.2415 -1.8118 -2.2857 0
M  V30 48 H 0.8180 -4.2142 -0.0278 0
M  V30 49 H -1.7455 -3.8498 -0.0544 0
M  V30 50 H -4.4347 1.8866 -0.3801 0
M  V30 51 H -6.6861 2.8813 -0.4738 0
M  V30 52 H -13.1955 2.4484 1.5025 0
M  V30 53 H -12.5180 1.3950 3.6340 0
M  V30 54 H -8.6713 0.5584 2.1377 0
M  V30 55 H -12.6261 3.1315 -0.7956 0
M  V30 56 H -11.0031 3.2487 -2.6434 0
M  V30 57 H -8.7596 2.2739 -2.4058 0
M  V30 58 H -8.4324 -1.0503 -0.1427 0
M  V30 59 H -6.1839 -2.0403 -0.0502 0
M  V30 60 H 5.3611 -1.4628 2.0107 0
M  V30 61 H 7.7974 -1.1167 1.9127 0
M  V30 62 H 8.1173 1.2326 0.7211 0
M  V30 63 H 11.5980 3.5136 1.3536 0
M  V30 END ATOM
M  V30 BEGIN BOND
M  V30 1 2 1 2
M  V30 2 1 2 3
M  V30 3 1 3 4
M  V30 4 2 4 5
M  V30 5 1 5 6
M  V30 6 2 6 7
M  V30 7 1 4 8
M  V30 8 2 8 9
M  V30 9 1 9 10
M  V30 10 2 10 11
M  V30 11 1 11 12
M  V30 12 3 12 13
M  V30 13 1 13 14
M  V30 14 2 14 15
M  V30 15 1 15 16
M  V30 16 2 16 17
M  V30 17 1 17 18
M  V30 18 3 18 19
M  V30 19 1 19 20
M  V30 20 2 20 21
M  V30 21 1 21 22
M  V30 22 2 22 23
M  V30 23 1 23 24
M  V30 24 1 24 25
M  V30 25 1 25 26
M  V30 26 2 26 27
M  V30 27 1 27 28
M  V30 28 2 28 29
M  V30 29 1 29 30
M  V30 30 1 26 31
M  V30 31 2 31 32
M  V30 32 1 32 33
M  V30 33 1 23 34
M  V30 34 2 34 35
M  V30 35 1 17 36
M  V30 36 1 11 37
M  V30 37 2 37 38
M  V30 38 2 3 39
M  V30 39 1 39 40
M  V30 40 2 40 41
M  V30 41 1 41 1
M  V30 42 1 7 2
M  V30 43 1 38 8
M  V30 44 1 36 14
M  V30 45 1 35 20
M  V30 46 2 33 24
M  V30 47 2 30 25
M  V30 48 1 1 42
M  V30 49 1 5 43
M  V30 50 1 6 44
M  V30 51 1 7 45
M  V30 52 1 9 46
M  V30 53 1 10 47
M  V30 54 1 15 48
M  V30 55 1 16 49
M  V30 56 1 21 50
M  V30 57 1 22 51
M  V30 58 1 27 52
M  V30 59 1 28 53
M  V30 60 1 30 54
M  V30 61 1 31 55
M  V30 62 1 32 56
M  V30 63 1 33 57
M  V30 64 1 34 58
M  V30 65 1 35 59
M  V30 66 1 37 60
M  V30 67 1 38 61
M  V30 68 1 39 62
M  V30 69 1 41 63
M  V30 END BOND
M  V30 END CTAB
M  END

$$$$
