
     RDKit          3D

  0  0  0  0  0  0  0  0  0  0999 V3000
M  V30 BEGIN CTAB
M  V30 COUNTS 63 69 0 0 0
M  V30 BEGIN ATOM
M  V30 1 C 12.2445 -1.2546 -1.1129 0
M  V30 2 C 11.5700 -0.3819 -0.2489 0
M  V30 3 C 10.1524 -0.3372 -0.2572 0
M  V30 4 C 9.4778 0.5541 0.6177 0
M  V30 5 C 10.2274 1.3517 1.4979 0
M  V30 6 C 11.6213 1.2945 1.5010 0
M  V30 7 C 12.2920 0.4384 0.6289 0
M  V30 8 C 8.0037 0.6929 0.6303 0
M  V30 9 C 7.2778 0.4029 1.7965 0
M  V30 10 C 5.8879 0.5538 1.8174 0
M  V30 11 C 5.2131 1.0047 0.6761 0
M  V30 12 C 3.7826 1.1602 0.6983 0
M  V30 13 C 2.5845 1.2904 0.7168 0
M  V30 14 C 1.1575 1.4455 0.7387 0
M  V30 15 C 0.4794 2.6211 1.0316 0
M  V30 16 C -0.9118 2.4762 0.9761 0
M  V30 17 C -1.3083 1.1887 0.6404 0
M  V30 18 C -2.6666 0.7436 0.5071 0
M  V30 19 C -3.8071 0.3701 0.3948 0
M  V30 20 C -5.1689 -0.0754 0.2604 0
M  V30 21 C -5.9029 -0.4415 1.3956 0
M  V30 22 C -7.2264 -0.8736 1.2656 0
M  V30 23 C -7.8299 -0.9344 -0.0006 0
M  V30 24 C -9.2243 -1.4130 -0.1379 0
M  V30 25 C -10.2598 -0.6017 -0.6713 0
M  V30 26 C -11.5626 -1.1429 -0.8191 0
M  V30 27 C -12.5897 -0.3512 -1.3498 0
M  V30 28 C -12.3217 0.9674 -1.7139 0
M  V30 29 N -11.0763 1.4815 -1.5474 0
M  V30 30 C -10.0541 0.7435 -1.0398 0
M  V30 31 C -11.8221 -2.4629 -0.4257 0
M  V30 32 C -10.8049 -3.2458 0.1183 0
M  V30 33 C -9.5182 -2.7267 0.2631 0
M  V30 34 C -7.0849 -0.5798 -1.1373 0
M  V30 35 C -5.7619 -0.1474 -1.0062 0
M  V30 36 S 0.0495 0.2243 0.4105 0
M  V30 37 C 5.9340 1.3082 -0.4856 0
M  V30 38 C 7.3238 1.1578 -0.5074 0
M  V30 39 C 9.4658 -1.2103 -1.1256 0
M  V30 40 N 10.1548 -2.0460 -1.9465 0
M  V30 41 C 11.5118 -2.0815 -1.9628 0
M  V30 42 H 13.3271 -1.3006 -1.1268 0
M  V30 43 H 9.7291 2.0355 2.1748 0
M  V30 44 H 12.1847 1.9219 2.1798 0
M  V30 45 H 13.3752 0.4118 0.6456 0
M  V30 46 H 7.7880 0.0539 2.6861 0
M  V30 47 H 5.3402 0.3202 2.7226 0
M  V30 48 H 0.9711 3.5535 1.2773 0
M  V30 49 H -1.6026 3.2854 1.1746 0
M  V30 50 H -5.4524 -0.3934 2.3798 0
M  V30 51 H -7.7833 -1.1540 2.1512 0
M  V30 52 H -13.5907 -0.7464 -1.4765 0
M  V30 53 H -13.1085 1.5874 -2.1224 0
M  V30 54 H -9.0921 1.2204 -0.9164 0
M  V30 55 H -12.8138 -2.8867 -0.5321 0
M  V30 56 H -11.0131 -4.2629 0.4245 0
M  V30 57 H -8.7408 -3.3591 0.6750 0
M  V30 58 H -7.5292 -0.6403 -2.1234 0
M  V30 59 H -5.2011 0.1277 -1.8915 0
M  V30 60 H 5.4226 1.6636 -1.3721 0
M  V30 61 H 7.8712 1.4050 -1.4089 0
M  V30 62 H 8.3859 -1.2462 -1.1500 0
M  V30 63 H 12.0233 -2.7603 -2.6320 0
M  V30 END ATOM
M  V30 BEGIN BOND
M  V30 1 2 1 2
M  V30 2 1 2 3
M  V30 3 1 3 4
M  V30 4 2 4 5
M  V30 5 1 5 6
M  V30 6 2 6 7
M  V30 7 1 4 8
M  V30 8 2 8 9
M  V30 9 1 9 10
M  V30 10 2 10 11
M  V30 11 1 11 12
M  V30 12 3 12 13
M  V30 13 1 13 14
M  V30 14 2 14 15
M  V30 15 1 15 16
M  V30 16 2 16 17
M  V30 17 1 17 18
M  V30 18 3 18 19
M  V30 19 1 19 20
M  V30 20 2 20 21
M  V30 21 1 21 22
M  V30 22 2 22 23
M  V30 23 1 23 24
M  V30 24 1 24 25
M  V30 25 1 25 26
M  V30 26 2 26 27
M  V30 27 1 27 28
M  V30 28 2 28 29
M  V30 29 1 29 30
M  V30 30 1 26 31
M  V30 31 2 31 32
M  V30 32 1 32 33
M  V30 33 1 23 34
M  V30 34 2 34 35
M  V30 35 1 17 36
M  V30 36 1 11 37
M  V30 37 2 37 38
M  V30 38 2 3 39
M  V30 39 1 39 40
M  V30 40 2 40 41
M  V30 41 1 41 1
M  V30 42 1 7 2
M  V30 43 1 38 8
M  V30 44 1 36 14
M  V30 45 1 35 20
M  V30 46 2 33 24
M  V30 47 2 30 25
M  V30 48 1 1 42
M  V30 49 1 5 43
M  V30 50 1 6 44
M  V30 51 1 7 45
M  V30 52 1 9 46
M  V30 53 1 10 47
M  V30 54 1 15 48
M  V30 55 1 16 49
M  V30 56 1 21 50
M  V30 57 1 22 51
M  V30 58 1 27 52
M  V30 59 1 28 53
M  V30 60 1 30 54
M  V30 61 1 31 55
M  V30 62 1 32 56
M  V30 63 1 33 57
M  V30 64 1 34 58
M  V30 65 1 35 59
M  V30 66 1 37 60
M  V30 67 1 38 61
M  V30 68 1 39 62
M  V30 69 1 41 63
M  V30 END BOND
M  V30 END CTAB
M  END

$$$$
