
     RDKit          3D

  0  0  0  0  0  0  0  0  0  0999 V3000
M  V30 BEGIN CTAB
M  V30 COUNTS 63 69 0 0 0
M  V30 BEGIN ATOM
M  V30 1 C 12.0012 -2.5111 1.5141 0
M  V30 2 C 11.4500 -1.2764 1.1469 0
M  V30 3 C 10.0444 -1.1442 1.0103 0
M  V30 4 C 9.4955 0.1090 0.6324 0
M  V30 5 C 10.3537 1.2029 0.4326 0
M  V30 6 C 11.7341 1.0620 0.5759 0
M  V30 7 C 12.2829 -0.1712 0.9244 0
M  V30 8 C 8.0440 0.3104 0.4209 0
M  V30 9 C 7.3699 -0.3888 -0.5937 0
M  V30 10 C 6.0036 -0.1808 -0.8051 0
M  V30 11 C 5.3017 0.7348 -0.0112 0
M  V30 12 C 3.8954 0.9488 -0.2292 0
M  V30 13 C 2.7175 1.1281 -0.4117 0
M  V30 14 C 1.3146 1.3414 -0.6287 0
M  V30 15 C 0.7632 2.3669 -1.3851 0
M  V30 16 C -0.6356 2.3267 -1.4204 0
M  V30 17 C -1.1647 1.2702 -0.6912 0
M  V30 18 C -2.5621 0.9763 -0.5449 0
M  V30 19 C -3.7356 0.7296 -0.4219 0
M  V30 20 C -5.1364 0.4351 -0.2750 0
M  V30 21 C -6.0802 1.4683 -0.3295 0
M  V30 22 C -7.4413 1.1827 -0.1860 0
M  V30 23 C -7.8710 -0.1411 0.0033 0
M  V30 24 C -9.3096 -0.4441 0.1783 0
M  V30 25 C -10.2725 -0.1825 -0.8313 0
M  V30 26 C -11.6413 -0.4521 -0.5753 0
M  V30 27 C -12.5993 -0.1917 -1.5639 0
M  V30 28 C -12.1930 0.3172 -2.7964 0
M  V30 29 N -10.8777 0.5505 -3.0382 0
M  V30 30 C -9.9204 0.3142 -2.1029 0
M  V30 31 C -12.0312 -0.9867 0.6604 0
M  V30 32 C -11.0766 -1.2622 1.6383 0
M  V30 33 C -9.7281 -0.9957 1.4005 0
M  V30 34 C -6.9197 -1.1715 0.0706 0
M  V30 35 C -5.5587 -0.8848 -0.0725 0
M  V30 36 S 0.0849 0.3821 -0.0009 0
M  V30 37 C 5.9723 1.4446 0.9927 0
M  V30 38 C 7.3386 1.2370 1.2050 0
M  V30 39 C 9.2420 -2.2702 1.2857 0
M  V30 40 N 9.8128 -3.4506 1.6434 0
M  V30 41 C 11.1581 -3.5945 1.7556 0
M  V30 42 H 13.0725 -2.6355 1.6186 0
M  V30 43 H 9.9519 2.1677 0.1468 0
M  V30 44 H 12.3826 1.9127 0.4101 0
M  V30 45 H 13.3580 -0.2595 1.0275 0
M  V30 46 H 7.9037 -1.0924 -1.2209 0
M  V30 47 H 5.4958 -0.7308 -1.5884 0
M  V30 48 H 1.3498 3.1200 -1.8951 0
M  V30 49 H -1.2380 3.0457 -1.9604 0
M  V30 50 H -5.7639 2.4936 -0.4796 0
M  V30 51 H -8.1607 1.9918 -0.2201 0
M  V30 52 H -13.6508 -0.3850 -1.3872 0
M  V30 53 H -12.9249 0.5194 -3.5670 0
M  V30 54 H -8.8900 0.5044 -2.3677 0
M  V30 55 H -13.0737 -1.1986 0.8669 0
M  V30 56 H -11.3838 -1.6796 2.5886 0
M  V30 57 H -9.0066 -1.2046 2.1814 0
M  V30 58 H -7.2334 -2.1964 0.2272 0
M  V30 59 H -4.8365 -1.6910 -0.0244 0
M  V30 60 H 5.4396 2.1584 1.6097 0
M  V30 61 H 7.8458 1.7926 1.9843 0
M  V30 62 H 8.1637 -2.2198 1.2332 0
M  V30 63 H 11.5738 -4.5514 2.0418 0
M  V30 END ATOM
M  V30 BEGIN BOND
M  V30 1 2 1 2
M  V30 2 1 2 3
M  V30 3 1 3 4
M  V30 4 2 4 5
M  V30 5 1 5 6
M  V30 6 2 6 7
M  V30 7 1 4 8
M  V30 8 2 8 9
M  V30 9 1 9 10
M  V30 10 2 10 11
M  V30 11 1 11 12
M  V30 12 3 12 13
M  V30 13 1 13 14
M  V30 14 2 14 15
M  V30 15 1 15 16
M  V30 16 2 16 17
M  V30 17 1 17 18
M  V30 18 3 18 19
M  V30 19 1 19 20
M  V30 20 2 20 21
M  V30 21 1 21 22
M  V30 22 2 22 23
M  V30 23 1 23 24
M  V30 24 1 24 25
M  V30 25 1 25 26
M  V30 26 2 26 27
M  V30 27 1 27 28
M  V30 28 2 28 29
M  V30 29 1 29 30
M  V30 30 1 26 31
M  V30 31 2 31 32
M  V30 32 1 32 33
M  V30 33 1 23 34
M  V30 34 2 34 35
M  V30 35 1 17 36
M  V30 36 1 11 37
M  V30 37 2 37 38
M  V30 38 2 3 39
M  V30 39 1 39 40
M  V30 40 2 40 41
M  V30 41 1 41 1
M  V30 42 1 7 2
M  V30 43 1 38 8
M  V30 44 1 36 14
M  V30 45 1 35 20
M  V30 46 2 33 24
M  V30 47 2 30 25
M  V30 48 1 1 42
M  V30 49 1 5 43
M  V30 50 1 6 44
M  V30 51 1 7 45
M  V30 52 1 9 46
M  V30 53 1 10 47
M  V30 54 1 15 48
M  V30 55 1 16 49
M  V30 56 1 21 50
M  V30 57 1 22 51
M  V30 58 1 27 52
M  V30 59 1 28 53
M  V30 60 1 30 54
M  V30 61 1 31 55
M  V30 62 1 32 56
M  V30 63 1 33 57
M  V30 64 1 34 58
M  V30 65 1 35 59
M  V30 66 1 37 60
M  V30 67 1 38 61
M  V30 68 1 39 62
M  V30 69 1 41 63
M  V30 END BOND
M  V30 END CTAB
M  END

$$$$
