
     RDKit          3D

  0  0  0  0  0  0  0  0  0  0999 V3000
M  V30 BEGIN CTAB
M  V30 COUNTS 63 69 0 0 0
M  V30 BEGIN ATOM
M  V30 1 C -12.2793 0.8890 2.4272 0
M  V30 2 C -11.5437 1.1613 1.2662 0
M  V30 3 C -10.1608 0.8497 1.2183 0
M  V30 4 C -9.4249 1.1240 0.0359 0
M  V30 5 C -10.0743 1.7288 -1.0529 0
M  V30 6 C -11.4337 2.0361 -0.9916 0
M  V30 7 C -12.1686 1.7490 0.1577 0
M  V30 8 C -7.9917 0.7808 -0.1065 0
M  V30 9 C -7.5730 -0.5588 -0.0535 0
M  V30 10 C -6.2216 -0.8816 -0.2092 0
M  V30 11 C -5.2788 0.1304 -0.4290 0
M  V30 12 C -3.8879 -0.2022 -0.5890 0
M  V30 13 C -2.7227 -0.4805 -0.7227 0
M  V30 14 C -1.3350 -0.8116 -0.8817 0
M  V30 15 C -0.8436 -1.9204 -1.5576 0
M  V30 16 C 0.5546 -1.9872 -1.5510 0
M  V30 17 C 1.1432 -0.9301 -0.8700 0
M  V30 18 C 2.5546 -0.7328 -0.6979 0
M  V30 19 C 3.7397 -0.5669 -0.5533 0
M  V30 20 C 5.1545 -0.3689 -0.3806 0
M  V30 21 C 6.0361 -0.6516 -1.4313 0
M  V30 22 C 7.4107 -0.4587 -1.2641 0
M  V30 23 C 7.9164 0.0093 -0.0402 0
M  V30 24 C 9.3693 0.2361 0.1326 0
M  V30 25 C 10.3213 -0.8126 0.0394 0
M  V30 26 C 11.7020 -0.5135 0.1662 0
M  V30 27 C 12.6491 -1.5415 0.0699 0
M  V30 28 C 12.2212 -2.8521 -0.1355 0
M  V30 29 N 10.8959 -3.1298 -0.2332 0
M  V30 30 C 9.9484 -2.1592 -0.1489 0
M  V30 31 C 12.1151 0.8058 0.3970 0
M  V30 32 C 11.1724 1.8266 0.5101 0
M  V30 33 C 9.8121 1.5458 0.3811 0
M  V30 34 C 7.0272 0.3040 1.0055 0
M  V30 35 C 5.6525 0.1112 0.8372 0
M  V30 36 S -0.0528 0.0901 -0.2738 0
M  V30 37 C -5.6932 1.4664 -0.4966 0
M  V30 38 C -7.0445 1.7902 -0.3407 0
M  V30 39 C -9.5640 0.2994 2.3710 0
M  V30 40 N -10.3094 0.0531 3.4804 0
M  V30 41 C -11.6382 0.3267 3.5299 0
M  V30 42 H -13.3378 1.1139 2.4832 0
M  V30 43 H -9.5275 1.9482 -1.9622 0
M  V30 44 H -11.9212 2.4945 -1.8423 0
M  V30 45 H -13.2241 1.9932 0.1832 0
M  V30 46 H -8.2938 -1.3514 0.1063 0
M  V30 47 H -5.9126 -1.9189 -0.1612 0
M  V30 48 H -1.4722 -2.6577 -2.0400 0
M  V30 49 H 1.1145 -2.7813 -2.0279 0
M  V30 50 H 5.6609 -1.0175 -2.3795 0
M  V30 51 H 8.0814 -0.6715 -2.0876 0
M  V30 52 H 13.7091 -1.3343 0.1581 0
M  V30 53 H 12.9446 -3.6531 -0.2090 0
M  V30 54 H 8.9102 -2.4519 -0.2164 0
M  V30 55 H 13.1669 1.0463 0.4974 0
M  V30 56 H 11.4978 2.8426 0.6931 0
M  V30 57 H 9.0993 2.3582 0.4583 0
M  V30 58 H 7.3997 0.6762 1.9520 0
M  V30 59 H 4.9788 0.3370 1.6550 0
M  V30 60 H -4.9726 2.2566 -0.6705 0
M  V30 61 H -7.3522 2.8273 -0.3955 0
M  V30 62 H -8.5074 0.0748 2.4056 0
M  V30 63 H -12.1969 0.1148 4.4317 0
M  V30 END ATOM
M  V30 BEGIN BOND
M  V30 1 2 1 2
M  V30 2 1 2 3
M  V30 3 1 3 4
M  V30 4 2 4 5
M  V30 5 1 5 6
M  V30 6 2 6 7
M  V30 7 1 4 8
M  V30 8 2 8 9
M  V30 9 1 9 10
M  V30 10 2 10 11
M  V30 11 1 11 12
M  V30 12 3 12 13
M  V30 13 1 13 14
M  V30 14 2 14 15
M  V30 15 1 15 16
M  V30 16 2 16 17
M  V30 17 1 17 18
M  V30 18 3 18 19
M  V30 19 1 19 20
M  V30 20 2 20 21
M  V30 21 1 21 22
M  V30 22 2 22 23
M  V30 23 1 23 24
M  V30 24 1 24 25
M  V30 25 1 25 26
M  V30 26 2 26 27
M  V30 27 1 27 28
M  V30 28 2 28 29
M  V30 29 1 29 30
M  V30 30 1 26 31
M  V30 31 2 31 32
M  V30 32 1 32 33
M  V30 33 1 23 34
M  V30 34 2 34 35
M  V30 35 1 17 36
M  V30 36 1 11 37
M  V30 37 2 37 38
M  V30 38 2 3 39
M  V30 39 1 39 40
M  V30 40 2 40 41
M  V30 41 1 41 1
M  V30 42 1 7 2
M  V30 43 1 38 8
M  V30 44 1 36 14
M  V30 45 1 35 20
M  V30 46 2 33 24
M  V30 47 2 30 25
M  V30 48 1 1 42
M  V30 49 1 5 43
M  V30 50 1 6 44
M  V30 51 1 7 45
M  V30 52 1 9 46
M  V30 53 1 10 47
M  V30 54 1 15 48
M  V30 55 1 16 49
M  V30 56 1 21 50
M  V30 57 1 22 51
M  V30 58 1 27 52
M  V30 59 1 28 53
M  V30 60 1 30 54
M  V30 61 1 31 55
M  V30 62 1 32 56
M  V30 63 1 33 57
M  V30 64 1 34 58
M  V30 65 1 35 59
M  V30 66 1 37 60
M  V30 67 1 38 61
M  V30 68 1 39 62
M  V30 69 1 41 63
M  V30 END BOND
M  V30 END CTAB
M  END

$$$$
