
     RDKit          3D

  0  0  0  0  0  0  0  0  0  0999 V3000
M  V30 BEGIN CTAB
M  V30 COUNTS 63 69 0 0 0
M  V30 BEGIN ATOM
M  V30 1 C -12.7113 0.0267 1.3396 0
M  V30 2 C -11.6170 -0.7347 1.7708 0
M  V30 3 C -10.2991 -0.3211 1.4480 0
M  V30 4 C -9.1966 -1.0960 1.8936 0
M  V30 5 C -9.4339 -2.2754 2.6187 0
M  V30 6 C -10.7348 -2.6750 2.9250 0
M  V30 7 C -11.8223 -1.9073 2.5107 0
M  V30 8 C -7.7923 -0.7018 1.6391 0
M  V30 9 C -6.9479 -1.5420 0.8962 0
M  V30 10 C -5.6142 -1.1849 0.6763 0
M  V30 11 C -5.1106 0.0101 1.2052 0
M  V30 12 C -3.7362 0.3736 0.9823 0
M  V30 13 C -2.5840 0.6742 0.7949 0
M  V30 14 C -1.2110 1.0275 0.5703 0
M  V30 15 C -0.7164 2.3212 0.4724 0
M  V30 16 C 0.6643 2.3611 0.2450 0
M  V30 17 C 1.2360 1.0981 0.1675 0
M  V30 18 C 2.6261 0.8245 -0.0629 0
M  V30 19 C 3.7925 0.5912 -0.2580 0
M  V30 20 C 5.1839 0.3091 -0.4926 0
M  V30 21 C 5.6647 0.1928 -1.8028 0
M  V30 22 C 7.0152 -0.0873 -2.0317 0
M  V30 23 C 7.8989 -0.2438 -0.9513 0
M  V30 24 C 9.3242 -0.5657 -1.1902 0
M  V30 25 C 10.1963 0.3080 -1.8907 0
M  V30 26 C 11.5373 -0.0888 -2.1279 0
M  V30 27 C 12.4036 0.7648 -2.8238 0
M  V30 28 C 11.9400 2.0038 -3.2632 0
M  V30 29 N 10.6609 2.3824 -3.0110 0
M  V30 30 C 9.7906 1.5802 -2.3431 0
M  V30 31 C 11.9952 -1.3276 -1.6583 0
M  V30 32 C 11.1387 -2.1699 -0.9509 0
M  V30 33 C 9.8160 -1.7933 -0.7167 0
M  V30 34 C 7.4093 -0.1387 0.3604 0
M  V30 35 C 6.0585 0.1413 0.5883 0
M  V30 36 S 0.0466 -0.0712 0.3774 0
M  V30 37 C -5.9454 0.8460 1.9573 0
M  V30 38 C -7.2794 0.4897 2.1777 0
M  V30 39 C -10.1409 0.8411 0.6657 0
M  V30 40 N -11.2270 1.5516 0.2624 0
M  V30 41 C -12.4918 1.1774 0.5840 0
M  V30 42 H -13.7260 -0.2681 1.5797 0
M  V30 43 H -8.6044 -2.8810 2.9640 0
M  V30 44 H -10.9004 -3.5822 3.4918 0
M  V30 45 H -12.8244 -2.2342 2.7620 0
M  V30 46 H -7.3247 -2.4697 0.4831 0
M  V30 47 H -4.9757 -1.8408 0.0968 0
M  V30 48 H -1.3309 3.2080 0.5600 0
M  V30 49 H 1.2237 3.2816 0.1396 0
M  V30 50 H 4.9954 0.3140 -2.6462 0
M  V30 51 H 7.3726 -0.1854 -3.0496 0
M  V30 52 H 13.4301 0.4790 -3.0209 0
M  V30 53 H 12.6018 2.6709 -3.7993 0
M  V30 54 H 8.7921 1.9510 -2.1599 0
M  V30 55 H 13.0179 -1.6410 -1.8319 0
M  V30 56 H 11.4999 -3.1231 -0.5868 0
M  V30 57 H 9.1652 -2.4714 -0.1774 0
M  V30 58 H 8.0752 -0.2679 1.2049 0
M  V30 59 H 5.6959 0.2245 1.6059 0
M  V30 60 H -5.5643 1.7696 2.3764 0
M  V30 61 H -7.9122 1.1391 2.7703 0
M  V30 62 H -9.1631 1.1845 0.3589 0
M  V30 63 H -13.3302 1.7709 0.2446 0
M  V30 END ATOM
M  V30 BEGIN BOND
M  V30 1 2 1 2
M  V30 2 1 2 3
M  V30 3 1 3 4
M  V30 4 2 4 5
M  V30 5 1 5 6
M  V30 6 2 6 7
M  V30 7 1 4 8
M  V30 8 2 8 9
M  V30 9 1 9 10
M  V30 10 2 10 11
M  V30 11 1 11 12
M  V30 12 3 12 13
M  V30 13 1 13 14
M  V30 14 2 14 15
M  V30 15 1 15 16
M  V30 16 2 16 17
M  V30 17 1 17 18
M  V30 18 3 18 19
M  V30 19 1 19 20
M  V30 20 2 20 21
M  V30 21 1 21 22
M  V30 22 2 22 23
M  V30 23 1 23 24
M  V30 24 1 24 25
M  V30 25 1 25 26
M  V30 26 2 26 27
M  V30 27 1 27 28
M  V30 28 2 28 29
M  V30 29 1 29 30
M  V30 30 1 26 31
M  V30 31 2 31 32
M  V30 32 1 32 33
M  V30 33 1 23 34
M  V30 34 2 34 35
M  V30 35 1 17 36
M  V30 36 1 11 37
M  V30 37 2 37 38
M  V30 38 2 3 39
M  V30 39 1 39 40
M  V30 40 2 40 41
M  V30 41 1 41 1
M  V30 42 1 7 2
M  V30 43 1 38 8
M  V30 44 1 36 14
M  V30 45 1 35 20
M  V30 46 2 33 24
M  V30 47 2 30 25
M  V30 48 1 1 42
M  V30 49 1 5 43
M  V30 50 1 6 44
M  V30 51 1 7 45
M  V30 52 1 9 46
M  V30 53 1 10 47
M  V30 54 1 15 48
M  V30 55 1 16 49
M  V30 56 1 21 50
M  V30 57 1 22 51
M  V30 58 1 27 52
M  V30 59 1 28 53
M  V30 60 1 30 54
M  V30 61 1 31 55
M  V30 62 1 32 56
M  V30 63 1 33 57
M  V30 64 1 34 58
M  V30 65 1 35 59
M  V30 66 1 37 60
M  V30 67 1 38 61
M  V30 68 1 39 62
M  V30 69 1 41 63
M  V30 END BOND
M  V30 END CTAB
M  END

$$$$
