
     RDKit          3D

  0  0  0  0  0  0  0  0  0  0999 V3000
M  V30 BEGIN CTAB
M  V30 COUNTS 63 69 0 0 0
M  V30 BEGIN ATOM
M  V30 1 C -12.2251 -2.0294 -0.5022 0
M  V30 2 C -11.5570 -0.8012 -0.4104 0
M  V30 3 C -10.1490 -0.7752 -0.2414 0
M  V30 4 C -9.4814 0.4737 -0.1439 0
M  V30 5 C -10.2252 1.6605 -0.2500 0
M  V30 6 C -11.6089 1.6220 -0.4222 0
M  V30 7 C -12.2749 0.3995 -0.4952 0
M  V30 8 C -8.0223 0.5795 0.0839 0
M  V30 9 C -7.4491 0.0788 1.2645 0
M  V30 10 C -6.0728 0.1915 1.4826 0
M  V30 11 C -5.2592 0.8142 0.5279 0
M  V30 12 C -3.8409 0.9182 0.7471 0
M  V30 13 C -2.6520 0.9993 0.9280 0
M  V30 14 C -1.2349 1.0881 1.1394 0
M  V30 15 C -0.6180 1.6276 2.2603 0
M  V30 16 C 0.7792 1.5715 2.1932 0
M  V30 17 C 1.2411 0.9868 1.0215 0
M  V30 18 C 2.6198 0.7847 0.6761 0
M  V30 19 C 3.7757 0.6103 0.3820 0
M  V30 20 C 5.1533 0.3973 0.0257 0
M  V30 21 C 6.1001 1.4060 0.2441 0
M  V30 22 C 7.4372 1.2006 -0.1100 0
M  V30 23 C 7.8407 -0.0203 -0.6757 0
M  V30 24 C 9.2500 -0.2313 -1.0782 0
M  V30 25 C 10.3217 -0.2054 -0.1476 0
M  V30 26 C 11.6520 -0.3659 -0.6127 0
M  V30 27 C 12.7167 -0.3357 0.2975 0
M  V30 28 C 12.4540 -0.1628 1.6554 0
M  V30 29 N 11.1752 -0.0333 2.0920 0
M  V30 30 C 10.1173 -0.0532 1.2390 0
M  V30 31 C 11.8980 -0.5639 -1.9781 0
M  V30 32 C 10.8381 -0.6117 -2.8824 0
M  V30 33 C 9.5261 -0.4488 -2.4383 0
M  V30 34 C 6.8854 -1.0238 -0.9022 0
M  V30 35 C 5.5484 -0.8171 -0.5491 0
M  V30 36 S -0.0657 0.5397 0.0638 0
M  V30 37 C -5.8283 1.3305 -0.6431 0
M  V30 38 C -7.2048 1.2181 -0.8622 0
M  V30 39 C -9.4621 -2.0059 -0.2053 0
M  V30 40 N -10.1443 -3.1773 -0.3022 0
M  V30 41 C -11.4941 -3.2146 -0.4415 0
M  V30 42 H -13.3008 -2.0721 -0.6255 0
M  V30 43 H -9.7315 2.6224 -0.1815 0
M  V30 44 H -12.1690 2.5455 -0.4938 0
M  V30 45 H -13.3506 0.3926 -0.6262 0
M  V30 46 H -8.0685 -0.3993 2.0137 0
M  V30 47 H -5.6437 -0.2066 2.3944 0
M  V30 48 H -1.1574 2.0482 3.0996 0
M  V30 49 H 1.4279 1.9457 2.9749 0
M  V30 50 H 5.8042 2.3515 0.6825 0
M  V30 51 H 8.1578 1.9929 0.0528 0
M  V30 52 H 13.7409 -0.4507 -0.0373 0
M  V30 53 H 13.2689 -0.1412 2.3665 0
M  V30 54 H 9.1239 0.0361 1.6551 0
M  V30 55 H 12.9099 -0.6902 -2.3446 0
M  V30 56 H 11.0342 -0.7706 -3.9351 0
M  V30 57 H 8.7205 -0.4752 -3.1626 0
M  V30 58 H 7.1773 -1.9673 -1.3474 0
M  V30 59 H 4.8233 -1.6024 -0.7267 0
M  V30 60 H -5.2085 1.8174 -1.3866 0
M  V30 61 H -7.6321 1.6200 -1.7728 0
M  V30 62 H -8.3859 -2.0480 -0.1151 0
M  V30 63 H -12.0005 -4.1678 -0.5141 0
M  V30 END ATOM
M  V30 BEGIN BOND
M  V30 1 2 1 2
M  V30 2 1 2 3
M  V30 3 1 3 4
M  V30 4 2 4 5
M  V30 5 1 5 6
M  V30 6 2 6 7
M  V30 7 1 4 8
M  V30 8 2 8 9
M  V30 9 1 9 10
M  V30 10 2 10 11
M  V30 11 1 11 12
M  V30 12 3 12 13
M  V30 13 1 13 14
M  V30 14 2 14 15
M  V30 15 1 15 16
M  V30 16 2 16 17
M  V30 17 1 17 18
M  V30 18 3 18 19
M  V30 19 1 19 20
M  V30 20 2 20 21
M  V30 21 1 21 22
M  V30 22 2 22 23
M  V30 23 1 23 24
M  V30 24 1 24 25
M  V30 25 1 25 26
M  V30 26 2 26 27
M  V30 27 1 27 28
M  V30 28 2 28 29
M  V30 29 1 29 30
M  V30 30 1 26 31
M  V30 31 2 31 32
M  V30 32 1 32 33
M  V30 33 1 23 34
M  V30 34 2 34 35
M  V30 35 1 17 36
M  V30 36 1 11 37
M  V30 37 2 37 38
M  V30 38 2 3 39
M  V30 39 1 39 40
M  V30 40 2 40 41
M  V30 41 1 41 1
M  V30 42 1 7 2
M  V30 43 1 38 8
M  V30 44 1 36 14
M  V30 45 1 35 20
M  V30 46 2 33 24
M  V30 47 2 30 25
M  V30 48 1 1 42
M  V30 49 1 5 43
M  V30 50 1 6 44
M  V30 51 1 7 45
M  V30 52 1 9 46
M  V30 53 1 10 47
M  V30 54 1 15 48
M  V30 55 1 16 49
M  V30 56 1 21 50
M  V30 57 1 22 51
M  V30 58 1 27 52
M  V30 59 1 28 53
M  V30 60 1 30 54
M  V30 61 1 31 55
M  V30 62 1 32 56
M  V30 63 1 33 57
M  V30 64 1 34 58
M  V30 65 1 35 59
M  V30 66 1 37 60
M  V30 67 1 38 61
M  V30 68 1 39 62
M  V30 69 1 41 63
M  V30 END BOND
M  V30 END CTAB
M  END

$$$$
