
     RDKit          3D

  0  0  0  0  0  0  0  0  0  0999 V3000
M  V30 BEGIN CTAB
M  V30 COUNTS 63 69 0 0 0
M  V30 BEGIN ATOM
M  V30 1 C -12.7065 -0.5562 0.9023 0
M  V30 2 C -11.5724 -1.3770 0.9609 0
M  V30 3 C -10.2914 -0.8310 0.6907 0
M  V30 4 C -9.1477 -1.6692 0.7588 0
M  V30 5 C -9.3114 -3.0313 1.0606 0
M  V30 6 C -10.5771 -3.5581 1.3176 0
M  V30 7 C -11.7026 -2.7366 1.2758 0
M  V30 8 C -7.7739 -1.1606 0.5433 0
M  V30 9 C -7.2325 -0.1900 1.4023 0
M  V30 10 C -5.9259 0.2707 1.2118 0
M  V30 11 C -5.1450 -0.2433 0.1691 0
M  V30 12 C -3.8014 0.2335 -0.0271 0
M  V30 13 C -2.6770 0.6365 -0.1899 0
M  V30 14 C -1.3395 1.1216 -0.3823 0
M  V30 15 C -0.9975 2.4218 -0.7276 0
M  V30 16 C 0.3848 2.6101 -0.8395 0
M  V30 17 C 1.1109 1.4555 -0.5806 0
M  V30 18 C 2.5422 1.3490 -0.6117 0
M  V30 19 C 3.7442 1.2646 -0.6371 0
M  V30 20 C 5.1796 1.1689 -0.6663 0
M  V30 21 C 5.9005 1.0688 0.5302 0
M  V30 22 C 7.2958 0.9838 0.5030 0
M  V30 23 C 7.9816 0.9902 -0.7223 0
M  V30 24 C 9.4605 0.9314 -0.7516 0
M  V30 25 C 10.1889 -0.1825 -0.2585 0
M  V30 26 C 11.6069 -0.1472 -0.2677 0
M  V30 27 C 12.3340 -1.2395 0.2236 0
M  V30 28 C 11.6535 -2.3580 0.7021 0
M  V30 29 N 10.2961 -2.3896 0.6859 0
M  V30 30 C 9.5568 -1.3474 0.2223 0
M  V30 31 C 12.2770 0.9747 -0.7753 0
M  V30 32 C 11.5539 2.0556 -1.2783 0
M  V30 33 C 10.1589 2.0349 -1.2689 0
M  V30 34 C 7.2552 1.1021 -1.9186 0
M  V30 35 C 5.8596 1.1863 -1.8905 0
M  V30 36 S 0.0563 0.1993 -0.2121 0
M  V30 37 C -5.6748 -1.2222 -0.6810 0
M  V30 38 C -6.9821 -1.6823 -0.4925 0
M  V30 39 C -10.2124 0.5306 0.3341 0
M  V30 40 N -11.3354 1.2943 0.2832 0
M  V30 41 C -12.5637 0.7878 0.5624 0
M  V30 42 H -13.6937 -0.9511 1.1123 0
M  V30 43 H -8.4499 -3.6865 1.1142 0
M  V30 44 H -10.6852 -4.6081 1.5565 0
M  V30 45 H -12.6764 -3.1655 1.4816 0
M  V30 46 H -7.8222 0.2076 2.2194 0
M  V30 47 H -5.5244 1.0252 1.8782 0
M  V30 48 H -1.7208 3.2101 -0.8916 0
M  V30 49 H 0.8366 3.5585 -1.0987 0
M  V30 50 H 5.3848 1.0619 1.4830 0
M  V30 51 H 7.8430 0.9180 1.4357 0
M  V30 52 H 13.4175 -1.2302 0.2328 0
M  V30 53 H 12.2059 -3.2079 1.0800 0
M  V30 54 H 8.4801 -1.4447 0.2222 0
M  V30 55 H 13.3603 1.0123 -0.7897 0
M  V30 56 H 12.0772 2.9174 -1.6722 0
M  V30 57 H 9.6189 2.8933 -1.6507 0
M  V30 58 H 7.7700 1.1187 -2.8715 0
M  V30 59 H 5.3115 1.2681 -2.8216 0
M  V30 60 H -5.0780 -1.6296 -1.4882 0
M  V30 61 H -7.3795 -2.4398 -1.1567 0
M  V30 62 H -9.2691 0.9928 0.0804 0
M  V30 63 H -13.4335 1.4293 0.5118 0
M  V30 END ATOM
M  V30 BEGIN BOND
M  V30 1 2 1 2
M  V30 2 1 2 3
M  V30 3 1 3 4
M  V30 4 2 4 5
M  V30 5 1 5 6
M  V30 6 2 6 7
M  V30 7 1 4 8
M  V30 8 2 8 9
M  V30 9 1 9 10
M  V30 10 2 10 11
M  V30 11 1 11 12
M  V30 12 3 12 13
M  V30 13 1 13 14
M  V30 14 2 14 15
M  V30 15 1 15 16
M  V30 16 2 16 17
M  V30 17 1 17 18
M  V30 18 3 18 19
M  V30 19 1 19 20
M  V30 20 2 20 21
M  V30 21 1 21 22
M  V30 22 2 22 23
M  V30 23 1 23 24
M  V30 24 1 24 25
M  V30 25 1 25 26
M  V30 26 2 26 27
M  V30 27 1 27 28
M  V30 28 2 28 29
M  V30 29 1 29 30
M  V30 30 1 26 31
M  V30 31 2 31 32
M  V30 32 1 32 33
M  V30 33 1 23 34
M  V30 34 2 34 35
M  V30 35 1 17 36
M  V30 36 1 11 37
M  V30 37 2 37 38
M  V30 38 2 3 39
M  V30 39 1 39 40
M  V30 40 2 40 41
M  V30 41 1 41 1
M  V30 42 1 7 2
M  V30 43 1 38 8
M  V30 44 1 36 14
M  V30 45 1 35 20
M  V30 46 2 33 24
M  V30 47 2 30 25
M  V30 48 1 1 42
M  V30 49 1 5 43
M  V30 50 1 6 44
M  V30 51 1 7 45
M  V30 52 1 9 46
M  V30 53 1 10 47
M  V30 54 1 15 48
M  V30 55 1 16 49
M  V30 56 1 21 50
M  V30 57 1 22 51
M  V30 58 1 27 52
M  V30 59 1 28 53
M  V30 60 1 30 54
M  V30 61 1 31 55
M  V30 62 1 32 56
M  V30 63 1 33 57
M  V30 64 1 34 58
M  V30 65 1 35 59
M  V30 66 1 37 60
M  V30 67 1 38 61
M  V30 68 1 39 62
M  V30 69 1 41 63
M  V30 END BOND
M  V30 END CTAB
M  END

$$$$
