
     RDKit          3D

  0  0  0  0  0  0  0  0  0  0999 V3000
M  V30 BEGIN CTAB
M  V30 COUNTS 63 69 0 0 0
M  V30 BEGIN ATOM
M  V30 1 C 12.6946 0.6250 -1.5059 0
M  V30 2 C 11.7201 1.0485 -0.5924 0
M  V30 3 C 10.3501 0.7880 -0.8514 0
M  V30 4 C 9.3703 1.2145 0.0831 0
M  V30 5 C 9.7747 1.9152 1.2314 0
M  V30 6 C 11.1251 2.1714 1.4717 0
M  V30 7 C 12.0953 1.7357 0.5702 0
M  V30 8 C 7.9275 0.9338 -0.0948 0
M  V30 9 C 7.0117 1.9914 -0.2122 0
M  V30 10 C 5.6473 1.7281 -0.3688 0
M  V30 11 C 5.1860 0.4059 -0.3988 0
M  V30 12 C 3.7832 0.1345 -0.5693 0
M  V30 13 C 2.6088 -0.0942 -0.7159 0
M  V30 14 C 1.2111 -0.3684 -0.8945 0
M  V30 15 C 0.6400 -0.9312 -2.0287 0
M  V30 16 C -0.7477 -1.0807 -1.9234 0
M  V30 17 C -1.2488 -0.6355 -0.7070 0
M  V30 18 C -2.6304 -0.6590 -0.3182 0
M  V30 19 C -3.7912 -0.6790 0.0057 0
M  V30 20 C -5.1777 -0.7027 0.3895 0
M  V30 21 C -6.0061 0.3870 0.0935 0
M  V30 22 C -7.3545 0.3625 0.4619 0
M  V30 23 C -7.8884 -0.7569 1.1208 0
M  V30 24 C -9.3114 -0.7761 1.5294 0
M  V30 25 C -10.3748 -0.7049 0.5917 0
M  V30 26 C -11.7137 -0.6677 1.0582 0
M  V30 27 C -12.7694 -0.5906 0.1401 0
M  V30 28 C -12.4911 -0.5665 -1.2254 0
M  V30 29 N -11.2069 -0.6262 -1.6610 0
M  V30 30 C -10.1566 -0.6967 -0.8010 0
M  V30 31 C -11.9783 -0.7177 2.4341 0
M  V30 32 C -10.9290 -0.8121 3.3473 0
M  V30 33 C -9.6078 -0.8440 2.9006 0
M  V30 34 C -7.0503 -1.8403 1.4287 0
M  V30 35 C -5.7017 -1.8150 1.0600 0
M  V30 36 S 0.0121 -0.0545 0.2420 0
M  V30 37 C 6.0937 -0.6521 -0.2660 0
M  V30 38 C 7.4580 -0.3897 -0.1103 0
M  V30 39 C 10.0150 0.1318 -2.0534 0
M  V30 40 N 10.9881 -0.2600 -2.9176 0
M  V30 41 C 12.3038 -0.0358 -2.6694 0
M  V30 42 H 13.7472 0.8079 -1.3243 0
M  V30 43 H 9.0401 2.2506 1.9541 0
M  V30 44 H 11.4217 2.7060 2.3653 0
M  V30 45 H 13.1391 1.9422 0.7777 0
M  V30 46 H 7.3561 3.0181 -0.1916 0
M  V30 47 H 4.9532 2.5542 -0.4678 0
M  V30 48 H 1.2038 -1.2163 -2.9071 0
M  V30 49 H -1.3627 -1.4946 -2.7116 0
M  V30 50 H -5.6097 1.2550 -0.4196 0
M  V30 51 H -7.9829 1.2151 0.2351 0
M  V30 52 H -13.7993 -0.5554 0.4753 0
M  V30 53 H -13.2996 -0.5094 -1.9423 0
M  V30 54 H -9.1604 -0.7599 -1.2152 0
M  V30 55 H -12.9972 -0.6913 2.8032 0
M  V30 56 H -11.1399 -0.8548 4.4084 0
M  V30 57 H -8.8087 -0.9019 3.6302 0
M  V30 58 H -7.4435 -2.7065 1.9467 0
M  V30 59 H -5.0683 -2.6613 1.2976 0
M  V30 60 H 5.7469 -1.6784 -0.2830 0
M  V30 61 H 8.1493 -1.2164 -0.0025 0
M  V30 62 H 8.9860 -0.0620 -2.3212 0
M  V30 63 H 13.0483 -0.3647 -3.3821 0
M  V30 END ATOM
M  V30 BEGIN BOND
M  V30 1 2 1 2
M  V30 2 1 2 3
M  V30 3 1 3 4
M  V30 4 2 4 5
M  V30 5 1 5 6
M  V30 6 2 6 7
M  V30 7 1 4 8
M  V30 8 2 8 9
M  V30 9 1 9 10
M  V30 10 2 10 11
M  V30 11 1 11 12
M  V30 12 3 12 13
M  V30 13 1 13 14
M  V30 14 2 14 15
M  V30 15 1 15 16
M  V30 16 2 16 17
M  V30 17 1 17 18
M  V30 18 3 18 19
M  V30 19 1 19 20
M  V30 20 2 20 21
M  V30 21 1 21 22
M  V30 22 2 22 23
M  V30 23 1 23 24
M  V30 24 1 24 25
M  V30 25 1 25 26
M  V30 26 2 26 27
M  V30 27 1 27 28
M  V30 28 2 28 29
M  V30 29 1 29 30
M  V30 30 1 26 31
M  V30 31 2 31 32
M  V30 32 1 32 33
M  V30 33 1 23 34
M  V30 34 2 34 35
M  V30 35 1 17 36
M  V30 36 1 11 37
M  V30 37 2 37 38
M  V30 38 2 3 39
M  V30 39 1 39 40
M  V30 40 2 40 41
M  V30 41 1 41 1
M  V30 42 1 7 2
M  V30 43 1 38 8
M  V30 44 1 36 14
M  V30 45 1 35 20
M  V30 46 2 33 24
M  V30 47 2 30 25
M  V30 48 1 1 42
M  V30 49 1 5 43
M  V30 50 1 6 44
M  V30 51 1 7 45
M  V30 52 1 9 46
M  V30 53 1 10 47
M  V30 54 1 15 48
M  V30 55 1 16 49
M  V30 56 1 21 50
M  V30 57 1 22 51
M  V30 58 1 27 52
M  V30 59 1 28 53
M  V30 60 1 30 54
M  V30 61 1 31 55
M  V30 62 1 32 56
M  V30 63 1 33 57
M  V30 64 1 34 58
M  V30 65 1 35 59
M  V30 66 1 37 60
M  V30 67 1 38 61
M  V30 68 1 39 62
M  V30 69 1 41 63
M  V30 END BOND
M  V30 END CTAB
M  END

$$$$
