
     RDKit          3D

  0  0  0  0  0  0  0  0  0  0999 V3000
M  V30 BEGIN CTAB
M  V30 COUNTS 63 69 0 0 0
M  V30 BEGIN ATOM
M  V30 1 C 12.5084 -1.5077 -0.1295 0
M  V30 2 C 11.6416 -0.7543 -0.9323 0
M  V30 3 C 10.2645 -0.6753 -0.6020 0
M  V30 4 C 9.3948 0.0933 -1.4192 0
M  V30 5 C 9.9100 0.7353 -2.5579 0
M  V30 6 C 11.2652 0.6461 -2.8752 0
M  V30 7 C 12.1300 -0.0882 -2.0649 0
M  V30 8 C 7.9569 0.2637 -1.1098 0
M  V30 9 C 6.9824 -0.1795 -2.0182 0
M  V30 10 C 5.6241 0.0011 -1.7387 0
M  V30 11 C 5.2293 0.6350 -0.5539 0
M  V30 12 C 3.8318 0.8189 -0.2646 0
M  V30 13 C 2.6618 0.9723 -0.0182 0
M  V30 14 C 1.2695 1.1545 0.2813 0
M  V30 15 C 0.7516 2.1016 1.1546 0
M  V30 16 C -0.6420 2.0354 1.2662 0
M  V30 17 C -1.2009 1.0372 0.4796 0
M  V30 18 C -2.5999 0.7251 0.4016 0
M  V30 19 C -3.7750 0.4632 0.3416 0
M  V30 20 C -5.1785 0.1513 0.2767 0
M  V30 21 C -5.8742 0.2894 -0.9309 0
M  V30 22 C -7.2389 -0.0101 -0.9922 0
M  V30 23 C -7.9213 -0.4414 0.1567 0
M  V30 24 C -9.3612 -0.7795 0.0844 0
M  V30 25 C -10.3431 -0.1042 0.8561 0
M  V30 26 C -11.6976 -0.5180 0.7765 0
M  V30 27 C -12.6724 0.1378 1.5400 0
M  V30 28 C -12.3010 1.2021 2.3600 0
M  V30 29 N -11.0055 1.6046 2.4106 0
M  V30 30 C -10.0316 0.9907 1.6880 0
M  V30 31 C -12.0592 -1.5739 -0.0715 0
M  V30 32 C -11.0925 -2.2156 -0.8445 0
M  V30 33 C -9.7562 -1.8225 -0.7696 0
M  V30 34 C -7.2153 -0.5924 1.3617 0
M  V30 35 C -5.8513 -0.2919 1.4221 0
M  V30 36 S 0.0163 0.2311 -0.3544 0
M  V30 37 C 6.1980 1.0911 0.3490 0
M  V30 38 C 7.5559 0.9110 0.0705 0
M  V30 39 C 9.8088 -1.3949 0.5216 0
M  V30 40 N 10.6795 -2.1185 1.2739 0
M  V30 41 C 12.0033 -2.1845 0.9792 0
M  V30 42 H 13.5648 -1.5774 -0.3608 0
M  V30 43 H 9.2598 1.3226 -3.1953 0
M  V30 44 H 11.6480 1.1535 -3.7518 0
M  V30 45 H 13.1796 -0.1424 -2.3280 0
M  V30 46 H 7.2757 -0.6703 -2.9383 0
M  V30 47 H 4.8828 -0.3520 -2.4457 0
M  V30 48 H 1.3590 2.8138 1.6981 0
M  V30 49 H -1.2193 2.6911 1.9047 0
M  V30 50 H -5.3622 0.6270 -1.8241 0
M  V30 51 H -7.7656 0.1000 -1.9324 0
M  V30 52 H -13.7119 -0.1659 1.4990 0
M  V30 53 H -13.0468 1.7161 2.9517 0
M  V30 54 H -9.0237 1.3741 1.7602 0
M  V30 55 H -13.0909 -1.8978 -0.1422 0
M  V30 56 H -11.3791 -3.0268 -1.5015 0
M  V30 57 H -9.0212 -2.3473 -1.3683 0
M  V30 58 H -7.7218 -0.9437 2.2524 0
M  V30 59 H -5.3216 -0.4072 2.3602 0
M  V30 60 H 5.9042 1.5880 1.2660 0
M  V30 61 H 8.2951 1.2772 0.7724 0
M  V30 62 H 8.7649 -1.4003 0.8013 0
M  V30 63 H 12.6641 -2.7716 1.6033 0
M  V30 END ATOM
M  V30 BEGIN BOND
M  V30 1 2 1 2
M  V30 2 1 2 3
M  V30 3 1 3 4
M  V30 4 2 4 5
M  V30 5 1 5 6
M  V30 6 2 6 7
M  V30 7 1 4 8
M  V30 8 2 8 9
M  V30 9 1 9 10
M  V30 10 2 10 11
M  V30 11 1 11 12
M  V30 12 3 12 13
M  V30 13 1 13 14
M  V30 14 2 14 15
M  V30 15 1 15 16
M  V30 16 2 16 17
M  V30 17 1 17 18
M  V30 18 3 18 19
M  V30 19 1 19 20
M  V30 20 2 20 21
M  V30 21 1 21 22
M  V30 22 2 22 23
M  V30 23 1 23 24
M  V30 24 1 24 25
M  V30 25 1 25 26
M  V30 26 2 26 27
M  V30 27 1 27 28
M  V30 28 2 28 29
M  V30 29 1 29 30
M  V30 30 1 26 31
M  V30 31 2 31 32
M  V30 32 1 32 33
M  V30 33 1 23 34
M  V30 34 2 34 35
M  V30 35 1 17 36
M  V30 36 1 11 37
M  V30 37 2 37 38
M  V30 38 2 3 39
M  V30 39 1 39 40
M  V30 40 2 40 41
M  V30 41 1 41 1
M  V30 42 1 7 2
M  V30 43 1 38 8
M  V30 44 1 36 14
M  V30 45 1 35 20
M  V30 46 2 33 24
M  V30 47 2 30 25
M  V30 48 1 1 42
M  V30 49 1 5 43
M  V30 50 1 6 44
M  V30 51 1 7 45
M  V30 52 1 9 46
M  V30 53 1 10 47
M  V30 54 1 15 48
M  V30 55 1 16 49
M  V30 56 1 21 50
M  V30 57 1 22 51
M  V30 58 1 27 52
M  V30 59 1 28 53
M  V30 60 1 30 54
M  V30 61 1 31 55
M  V30 62 1 32 56
M  V30 63 1 33 57
M  V30 64 1 34 58
M  V30 65 1 35 59
M  V30 66 1 37 60
M  V30 67 1 38 61
M  V30 68 1 39 62
M  V30 69 1 41 63
M  V30 END BOND
M  V30 END CTAB
M  END

$$$$
