
     RDKit          3D

  0  0  0  0  0  0  0  0  0  0999 V3000
M  V30 BEGIN CTAB
M  V30 COUNTS 63 69 0 0 0
M  V30 BEGIN ATOM
M  V30 1 C -12.4785 -1.3252 2.3579 0
M  V30 2 C -11.2830 -1.6057 3.0326 0
M  V30 3 C -10.0394 -1.3832 2.3871 0
M  V30 4 C -8.8336 -1.6770 3.0763 0
M  V30 5 C -8.8951 -2.1492 4.3982 0
M  V30 6 C -10.1241 -2.3577 5.0249 0
M  V30 7 C -11.3132 -2.0953 4.3458 0
M  V30 8 C -7.5005 -1.5216 2.4505 0
M  V30 9 C -6.5562 -0.6467 3.0108 0
M  V30 10 C -5.2899 -0.5128 2.4338 0
M  V30 11 C -4.9538 -1.2583 1.2972 0
M  V30 12 C -3.6488 -1.1236 0.7067 0
M  V30 13 C -2.5547 -1.0146 0.2125 0
M  V30 14 C -1.2508 -0.8905 -0.3757 0
M  V30 15 C -0.8413 -1.4887 -1.5602 0
M  V30 16 C 0.4911 -1.2047 -1.8818 0
M  V30 17 C 1.1110 -0.3877 -0.9450 0
M  V30 18 C 2.4717 0.0671 -1.0083 0
M  V30 19 C 3.6148 0.4459 -1.0639 0
M  V30 20 C 4.9805 0.8943 -1.1333 0
M  V30 21 C 5.4293 1.6077 -2.2521 0
M  V30 22 C 6.7583 2.0367 -2.3230 0
M  V30 23 C 7.6527 1.7462 -1.2800 0
M  V30 24 C 9.0569 2.2108 -1.3470 0
M  V30 25 C 9.9569 1.7723 -2.3536 0
M  V30 26 C 11.2753 2.2941 -2.3845 0
M  V30 27 C 12.1693 1.8701 -3.3768 0
M  V30 28 C 11.7558 0.9267 -4.3159 0
M  V30 29 N 10.4981 0.4185 -4.2642 0
M  V30 30 C 9.6019 0.8086 -3.3195 0
M  V30 31 C 11.6841 3.2232 -1.4180 0
M  V30 32 C 10.8013 3.6317 -0.4193 0
M  V30 33 C 9.4994 3.1310 -0.3828 0
M  V30 34 C 7.1943 1.0429 -0.1541 0
M  V30 35 C 5.8649 0.6155 -0.0833 0
M  V30 36 S 0.0232 -0.0111 0.2805 0
M  V30 37 C -5.8866 -2.1429 0.7426 0
M  V30 38 C -7.1523 -2.2796 1.3205 0
M  V30 39 C -10.0550 -0.8470 1.0837 0
M  V30 40 N -11.2348 -0.5849 0.4622 0
M  V30 41 C -12.4312 -0.8158 1.0613 0
M  V30 42 H -13.4389 -1.4933 2.8305 0
M  V30 43 H -7.9842 -2.3735 4.9416 0
M  V30 44 H -10.1544 -2.7304 6.0409 0
M  V30 45 H -12.2570 -2.2676 4.8502 0
M  V30 46 H -6.8034 -0.0648 3.8899 0
M  V30 47 H -4.5732 0.1696 2.8746 0
M  V30 48 H -1.4809 -2.1124 -2.1703 0
M  V30 49 H 0.9839 -1.5871 -2.7655 0
M  V30 50 H 4.7522 1.8330 -3.0678 0
M  V30 51 H 7.0916 2.5947 -3.1898 0
M  V30 52 H 13.1789 2.2601 -3.4220 0
M  V30 53 H 12.4397 0.5910 -5.0842 0
M  V30 54 H 8.6230 0.3506 -3.3243 0
M  V30 55 H 12.6892 3.6275 -1.4303 0
M  V30 56 H 11.1267 4.3438 0.3284 0
M  V30 57 H 8.8261 3.4758 0.3928 0
M  V30 58 H 7.8687 0.8179 0.6634 0
M  V30 59 H 5.5266 0.0674 0.7884 0
M  V30 60 H -5.6345 -2.7297 -0.1324 0
M  V30 61 H -7.8605 -2.9768 0.8893 0
M  V30 62 H -9.1393 -0.6201 0.5570 0
M  V30 63 H -13.3483 -0.5952 0.5321 0
M  V30 END ATOM
M  V30 BEGIN BOND
M  V30 1 2 1 2
M  V30 2 1 2 3
M  V30 3 1 3 4
M  V30 4 2 4 5
M  V30 5 1 5 6
M  V30 6 2 6 7
M  V30 7 1 4 8
M  V30 8 2 8 9
M  V30 9 1 9 10
M  V30 10 2 10 11
M  V30 11 1 11 12
M  V30 12 3 12 13
M  V30 13 1 13 14
M  V30 14 2 14 15
M  V30 15 1 15 16
M  V30 16 2 16 17
M  V30 17 1 17 18
M  V30 18 3 18 19
M  V30 19 1 19 20
M  V30 20 2 20 21
M  V30 21 1 21 22
M  V30 22 2 22 23
M  V30 23 1 23 24
M  V30 24 1 24 25
M  V30 25 1 25 26
M  V30 26 2 26 27
M  V30 27 1 27 28
M  V30 28 2 28 29
M  V30 29 1 29 30
M  V30 30 1 26 31
M  V30 31 2 31 32
M  V30 32 1 32 33
M  V30 33 1 23 34
M  V30 34 2 34 35
M  V30 35 1 17 36
M  V30 36 1 11 37
M  V30 37 2 37 38
M  V30 38 2 3 39
M  V30 39 1 39 40
M  V30 40 2 40 41
M  V30 41 1 41 1
M  V30 42 1 7 2
M  V30 43 1 38 8
M  V30 44 1 36 14
M  V30 45 1 35 20
M  V30 46 2 33 24
M  V30 47 2 30 25
M  V30 48 1 1 42
M  V30 49 1 5 43
M  V30 50 1 6 44
M  V30 51 1 7 45
M  V30 52 1 9 46
M  V30 53 1 10 47
M  V30 54 1 15 48
M  V30 55 1 16 49
M  V30 56 1 21 50
M  V30 57 1 22 51
M  V30 58 1 27 52
M  V30 59 1 28 53
M  V30 60 1 30 54
M  V30 61 1 31 55
M  V30 62 1 32 56
M  V30 63 1 33 57
M  V30 64 1 34 58
M  V30 65 1 35 59
M  V30 66 1 37 60
M  V30 67 1 38 61
M  V30 68 1 39 62
M  V30 69 1 41 63
M  V30 END BOND
M  V30 END CTAB
M  END

$$$$
