
     RDKit          3D

  0  0  0  0  0  0  0  0  0  0999 V3000
M  V30 BEGIN CTAB
M  V30 COUNTS 63 69 0 0 0
M  V30 BEGIN ATOM
M  V30 1 C -12.7205 -0.2675 -0.9362 0
M  V30 2 C -11.6143 -0.9239 -1.4915 0
M  V30 3 C -10.3195 -0.6980 -0.9585 0
M  V30 4 C -9.2039 -1.3626 -1.5316 0
M  V30 5 C -9.4089 -2.2572 -2.5951 0
M  V30 6 C -10.6883 -2.4763 -3.1063 0
M  V30 7 C -11.7861 -1.8095 -2.5645 0
M  V30 8 C -7.8177 -1.1397 -1.0622 0
M  V30 9 C -7.0699 -2.2072 -0.5412 0
M  V30 10 C -5.7525 -2.0050 -0.1185 0
M  V30 11 C -5.1685 -0.7361 -0.2212 0
M  V30 12 C -3.8118 -0.5291 0.2117 0
M  V30 13 C -2.6750 -0.3566 0.5737 0
M  V30 14 C -1.3207 -0.1526 1.0038 0
M  V30 15 C -0.9250 0.1699 2.2948 0
M  V30 16 C 0.4626 0.3033 2.4226 0
M  V30 17 C 1.1388 0.0844 1.2300 0
M  V30 18 C 2.5624 0.1464 1.0558 0
M  V30 19 C 3.7579 0.1960 0.9091 0
M  V30 20 C 5.1854 0.2523 0.7335 0
M  V30 21 C 5.9947 -0.7766 1.2320 0
M  V30 22 C 7.3813 -0.7248 1.0589 0
M  V30 23 C 7.9716 0.3615 0.3938 0
M  V30 24 C 9.4388 0.4034 0.1964 0
M  V30 25 C 10.2513 1.4380 0.7301 0
M  V30 26 C 11.6446 1.4370 0.4645 0
M  V30 27 C 12.4525 2.4586 0.9808 0
M  V30 28 C 11.8780 3.4592 1.7637 0
M  V30 29 N 10.5481 3.4365 2.0309 0
M  V30 30 C 9.7322 2.4644 1.5448 0
M  V30 31 C 12.2110 0.4110 -0.3047 0
M  V30 32 C 11.4095 -0.6133 -0.8066 0
M  V30 33 C 10.0363 -0.6190 -0.5585 0
M  V30 34 C 7.1550 1.3840 -0.1165 0
M  V30 35 C 5.7684 1.3319 0.0578 0
M  V30 36 S 0.0336 -0.2748 0.0152 0
M  V30 37 C -5.9068 0.3295 -0.7513 0
M  V30 38 C -7.2241 0.1281 -1.1748 0
M  V30 39 C -10.1992 0.1662 0.1484 0
M  V30 40 N -11.2961 0.7821 0.6626 0
M  V30 41 C -12.5366 0.5916 0.1461 0
M  V30 42 H -13.7174 -0.4218 -1.3317 0
M  V30 43 H -8.5694 -2.7767 -3.0421 0
M  V30 44 H -10.8290 -3.1639 -3.9308 0
M  V30 45 H -12.7709 -1.9925 -2.9785 0
M  V30 46 H -7.5100 -3.1936 -0.4567 0
M  V30 47 H -5.1901 -2.8376 0.2864 0
M  V30 48 H -1.6138 0.3035 3.1186 0
M  V30 49 H 0.9531 0.5497 3.3555 0
M  V30 50 H 5.5540 -1.6186 1.7524 0
M  V30 51 H 7.9961 -1.5267 1.4493 0
M  V30 52 H 13.5176 2.4806 0.7847 0
M  V30 53 H 12.4931 4.2516 2.1685 0
M  V30 54 H 8.6856 2.4959 1.8114 0
M  V30 55 H 13.2747 0.3973 -0.5114 0
M  V30 56 H 11.8538 -1.4052 -1.3957 0
M  V30 57 H 9.4321 -1.4184 -0.9713 0
M  V30 58 H 7.5931 2.2196 -0.6492 0
M  V30 59 H 5.1515 2.1304 -0.3368 0
M  V30 60 H -5.4630 1.3137 -0.8407 0
M  V30 61 H -7.7813 0.9578 -1.5925 0
M  V30 62 H -9.2438 0.3477 0.6191 0
M  V30 63 H -13.3846 1.1017 0.5831 0
M  V30 END ATOM
M  V30 BEGIN BOND
M  V30 1 2 1 2
M  V30 2 1 2 3
M  V30 3 1 3 4
M  V30 4 2 4 5
M  V30 5 1 5 6
M  V30 6 2 6 7
M  V30 7 1 4 8
M  V30 8 2 8 9
M  V30 9 1 9 10
M  V30 10 2 10 11
M  V30 11 1 11 12
M  V30 12 3 12 13
M  V30 13 1 13 14
M  V30 14 2 14 15
M  V30 15 1 15 16
M  V30 16 2 16 17
M  V30 17 1 17 18
M  V30 18 3 18 19
M  V30 19 1 19 20
M  V30 20 2 20 21
M  V30 21 1 21 22
M  V30 22 2 22 23
M  V30 23 1 23 24
M  V30 24 1 24 25
M  V30 25 1 25 26
M  V30 26 2 26 27
M  V30 27 1 27 28
M  V30 28 2 28 29
M  V30 29 1 29 30
M  V30 30 1 26 31
M  V30 31 2 31 32
M  V30 32 1 32 33
M  V30 33 1 23 34
M  V30 34 2 34 35
M  V30 35 1 17 36
M  V30 36 1 11 37
M  V30 37 2 37 38
M  V30 38 2 3 39
M  V30 39 1 39 40
M  V30 40 2 40 41
M  V30 41 1 41 1
M  V30 42 1 7 2
M  V30 43 1 38 8
M  V30 44 1 36 14
M  V30 45 1 35 20
M  V30 46 2 33 24
M  V30 47 2 30 25
M  V30 48 1 1 42
M  V30 49 1 5 43
M  V30 50 1 6 44
M  V30 51 1 7 45
M  V30 52 1 9 46
M  V30 53 1 10 47
M  V30 54 1 15 48
M  V30 55 1 16 49
M  V30 56 1 21 50
M  V30 57 1 22 51
M  V30 58 1 27 52
M  V30 59 1 28 53
M  V30 60 1 30 54
M  V30 61 1 31 55
M  V30 62 1 32 56
M  V30 63 1 33 57
M  V30 64 1 34 58
M  V30 65 1 35 59
M  V30 66 1 37 60
M  V30 67 1 38 61
M  V30 68 1 39 62
M  V30 69 1 41 63
M  V30 END BOND
M  V30 END CTAB
M  END

$$$$
