
     RDKit          3D

  0  0  0  0  0  0  0  0  0  0999 V3000
M  V30 BEGIN CTAB
M  V30 COUNTS 63 69 0 0 0
M  V30 BEGIN ATOM
M  V30 1 C -12.2185 2.2883 -0.3587 0
M  V30 2 C -11.4911 1.2463 -0.9489 0
M  V30 3 C -10.1317 1.0470 -0.5960 0
M  V30 4 C -9.4013 -0.0077 -1.2033 0
M  V30 5 C -10.0488 -0.8534 -2.1193 0
M  V30 6 C -11.3881 -0.6510 -2.4539 0
M  V30 7 C -12.1063 0.3962 -1.8786 0
M  V30 8 C -7.9674 -0.2471 -0.9231 0
M  V30 9 C -7.0063 0.7210 -1.2573 0
M  V30 10 C -5.6503 0.4807 -1.0159 0
M  V30 11 C -5.2425 -0.7328 -0.4480 0
M  V30 12 C -3.8461 -0.9830 -0.2069 0
M  V30 13 C -2.6760 -1.1932 -0.0074 0
M  V30 14 C -1.2824 -1.4441 0.2281 0
M  V30 15 C -0.7538 -2.6076 0.7706 0
M  V30 16 C 0.6414 -2.5738 0.8781 0
M  V30 17 C 1.1904 -1.3840 0.4188 0
M  V30 18 C 2.5903 -1.0666 0.3963 0
M  V30 19 C 3.7658 -0.8009 0.3752 0
M  V30 20 C 5.1694 -0.4850 0.3477 0
M  V30 21 C 6.0130 -1.1187 -0.5735 0
M  V30 22 C 7.3771 -0.8126 -0.6015 0
M  V30 23 C 7.9113 0.1235 0.2984 0
M  V30 24 C 9.3512 0.4656 0.2484 0
M  V30 25 C 10.2234 0.2597 1.3494 0
M  V30 26 C 11.5809 0.6587 1.2468 0
M  V30 27 C 12.4478 0.4653 2.3303 0
M  V30 28 C 11.9678 -0.1318 3.4950 0
M  V30 29 N 10.6725 -0.5308 3.5737 0
M  V30 30 C 9.8013 -0.3566 2.5452 0
M  V30 31 C 12.0540 1.2364 0.0608 0
M  V30 32 C 11.1964 1.4142 -1.0238 0
M  V30 33 C 9.8582 1.0310 -0.9333 0
M  V30 34 C 7.0584 0.7668 1.2106 0
M  V30 35 C 5.6943 0.4599 1.2380 0
M  V30 36 S -0.0369 -0.3705 -0.1221 0
M  V30 37 C -6.1959 -1.7062 -0.1243 0
M  V30 38 C -7.5522 -1.4666 -0.3651 0
M  V30 39 C -9.5663 1.8987 0.3745 0
M  V30 40 N -10.3048 2.8963 0.9281 0
M  V30 41 C -11.6000 3.1101 0.5820 0
M  V30 42 H -13.2559 2.4621 -0.6186 0
M  V30 43 H -9.5076 -1.6652 -2.5905 0
M  V30 44 H -11.8702 -1.3067 -3.1678 0
M  V30 45 H -13.1450 0.5374 -2.1544 0
M  V30 46 H -7.3079 1.6588 -1.7078 0
M  V30 47 H -4.9204 1.2378 -1.2763 0
M  V30 48 H -1.3538 -3.4546 1.0773 0
M  V30 49 H 1.2275 -3.3921 1.2760 0
M  V30 50 H 5.6161 -1.8476 -1.2701 0
M  V30 51 H 8.0185 -1.3086 -1.3198 0
M  V30 52 H 13.4871 0.7679 2.2752 0
M  V30 53 H 12.6297 -0.2870 4.3364 0
M  V30 54 H 8.7889 -0.7149 2.6674 0
M  V30 55 H 13.0891 1.5440 -0.0297 0
M  V30 56 H 11.5690 1.8571 -1.9382 0
M  V30 57 H 9.2078 1.1922 -1.7848 0
M  V30 58 H 7.4502 1.5071 1.8974 0
M  V30 59 H 5.0492 0.9616 1.9498 0
M  V30 60 H -5.8907 -2.6502 0.3111 0
M  V30 61 H -8.2794 -2.2287 -0.1129 0
M  V30 62 H -8.5464 1.7723 0.7088 0
M  V30 63 H -12.1537 3.9158 1.0451 0
M  V30 END ATOM
M  V30 BEGIN BOND
M  V30 1 2 1 2
M  V30 2 1 2 3
M  V30 3 1 3 4
M  V30 4 2 4 5
M  V30 5 1 5 6
M  V30 6 2 6 7
M  V30 7 1 4 8
M  V30 8 2 8 9
M  V30 9 1 9 10
M  V30 10 2 10 11
M  V30 11 1 11 12
M  V30 12 3 12 13
M  V30 13 1 13 14
M  V30 14 2 14 15
M  V30 15 1 15 16
M  V30 16 2 16 17
M  V30 17 1 17 18
M  V30 18 3 18 19
M  V30 19 1 19 20
M  V30 20 2 20 21
M  V30 21 1 21 22
M  V30 22 2 22 23
M  V30 23 1 23 24
M  V30 24 1 24 25
M  V30 25 1 25 26
M  V30 26 2 26 27
M  V30 27 1 27 28
M  V30 28 2 28 29
M  V30 29 1 29 30
M  V30 30 1 26 31
M  V30 31 2 31 32
M  V30 32 1 32 33
M  V30 33 1 23 34
M  V30 34 2 34 35
M  V30 35 1 17 36
M  V30 36 1 11 37
M  V30 37 2 37 38
M  V30 38 2 3 39
M  V30 39 1 39 40
M  V30 40 2 40 41
M  V30 41 1 41 1
M  V30 42 1 7 2
M  V30 43 1 38 8
M  V30 44 1 36 14
M  V30 45 1 35 20
M  V30 46 2 33 24
M  V30 47 2 30 25
M  V30 48 1 1 42
M  V30 49 1 5 43
M  V30 50 1 6 44
M  V30 51 1 7 45
M  V30 52 1 9 46
M  V30 53 1 10 47
M  V30 54 1 15 48
M  V30 55 1 16 49
M  V30 56 1 21 50
M  V30 57 1 22 51
M  V30 58 1 27 52
M  V30 59 1 28 53
M  V30 60 1 30 54
M  V30 61 1 31 55
M  V30 62 1 32 56
M  V30 63 1 33 57
M  V30 64 1 34 58
M  V30 65 1 35 59
M  V30 66 1 37 60
M  V30 67 1 38 61
M  V30 68 1 39 62
M  V30 69 1 41 63
M  V30 END BOND
M  V30 END CTAB
M  END

$$$$
