
     RDKit          3D

  0  0  0  0  0  0  0  0  0  0999 V3000
M  V30 BEGIN CTAB
M  V30 COUNTS 63 69 0 0 0
M  V30 BEGIN ATOM
M  V30 1 C -12.7841 0.5545 0.5083 0
M  V30 2 C -11.7640 -0.4046 0.4553 0
M  V30 3 C -10.4127 0.0092 0.3346 0
M  V30 4 C -9.3854 -0.9692 0.2886 0
M  V30 5 C -9.7308 -2.3305 0.3283 0
M  V30 6 C -11.0638 -2.7253 0.4409 0
M  V30 7 C -12.0765 -1.7698 0.5120 0
M  V30 8 C -7.9498 -0.6122 0.2206 0
M  V30 9 C -7.3463 0.1058 1.2661 0
M  V30 10 C -5.9867 0.4256 1.2087 0
M  V30 11 C -5.2162 0.0220 0.1113 0
M  V30 12 C -3.8169 0.3531 0.0535 0
M  V30 13 C -2.6452 0.6325 0.0087 0
M  V30 14 C -1.2501 0.9676 -0.0401 0
M  V30 15 C -0.7341 2.2449 -0.2128 0
M  V30 16 C 0.6654 2.2734 -0.2050 0
M  V30 17 C 1.2306 1.0177 -0.0264 0
M  V30 18 C 2.6373 0.7395 0.0391 0
M  V30 19 C 3.8186 0.5070 0.0971 0
M  V30 20 C 5.2291 0.2303 0.1695 0
M  V30 21 C 6.1364 1.2695 0.4104 0
M  V30 22 C 7.5066 1.0004 0.4857 0
M  V30 23 C 7.9820 -0.3097 0.3103 0
M  V30 24 C 9.4297 -0.6019 0.4149 0
M  V30 25 C 10.3870 -0.0416 -0.4707 0
M  V30 26 C 11.7634 -0.3260 -0.2794 0
M  V30 27 C 12.7158 0.2267 -1.1455 0
M  V30 28 C 12.2970 1.0407 -2.1966 0
M  V30 29 N 10.9753 1.2884 -2.3833 0
M  V30 30 C 10.0230 0.7734 -1.5619 0
M  V30 31 C 12.1667 -1.1659 0.7677 0
M  V30 32 C 11.2183 -1.7306 1.6190 0
M  V30 33 C 9.8623 -1.4536 1.4446 0
M  V30 34 C 7.0669 -1.3499 0.0820 0
M  V30 35 C 5.6968 -1.0799 0.0075 0
M  V30 36 S 0.0122 -0.1313 0.1248 0
M  V30 37 C -5.8096 -0.7070 -0.9269 0
M  V30 38 C -7.1694 -1.0271 -0.8704 0
M  V30 39 C -10.1478 1.3904 0.2367 0
M  V30 40 N -11.1645 2.2908 0.2872 0
M  V30 41 C -12.4593 1.9074 0.4257 0
M  V30 42 H -13.8223 0.2605 0.6067 0
M  V30 43 H -8.9602 -3.0913 0.2900 0
M  V30 44 H -11.3127 -3.7783 0.4795 0
M  V30 45 H -13.1048 -2.0981 0.6035 0
M  V30 46 H -7.9290 0.4158 2.1249 0
M  V30 47 H -5.5362 0.9845 2.0205 0
M  V30 48 H -1.3464 3.1287 -0.3364 0
M  V30 49 H 1.2428 3.1813 -0.3219 0
M  V30 50 H 5.7845 2.2856 0.5443 0
M  V30 51 H 8.1972 1.8111 0.6836 0
M  V30 52 H 13.7726 0.0269 -1.0141 0
M  V30 53 H 13.0245 1.4703 -2.8720 0
M  V30 54 H 8.9876 0.9951 -1.7787 0
M  V30 55 H 13.2153 -1.3915 0.9227 0
M  V30 56 H 11.5360 -2.3824 2.4226 0
M  V30 57 H 9.1453 -1.8926 2.1279 0
M  V30 58 H 7.4155 -2.3677 -0.0439 0
M  V30 59 H 5.0028 -1.8919 -0.1739 0
M  V30 60 H -5.2214 -1.0278 -1.7783 0
M  V30 61 H -7.6166 -1.5915 -1.6793 0
M  V30 62 H -9.1418 1.7629 0.1062 0
M  V30 63 H -13.2400 2.6554 0.4630 0
M  V30 END ATOM
M  V30 BEGIN BOND
M  V30 1 2 1 2
M  V30 2 1 2 3
M  V30 3 1 3 4
M  V30 4 2 4 5
M  V30 5 1 5 6
M  V30 6 2 6 7
M  V30 7 1 4 8
M  V30 8 2 8 9
M  V30 9 1 9 10
M  V30 10 2 10 11
M  V30 11 1 11 12
M  V30 12 3 12 13
M  V30 13 1 13 14
M  V30 14 2 14 15
M  V30 15 1 15 16
M  V30 16 2 16 17
M  V30 17 1 17 18
M  V30 18 3 18 19
M  V30 19 1 19 20
M  V30 20 2 20 21
M  V30 21 1 21 22
M  V30 22 2 22 23
M  V30 23 1 23 24
M  V30 24 1 24 25
M  V30 25 1 25 26
M  V30 26 2 26 27
M  V30 27 1 27 28
M  V30 28 2 28 29
M  V30 29 1 29 30
M  V30 30 1 26 31
M  V30 31 2 31 32
M  V30 32 1 32 33
M  V30 33 1 23 34
M  V30 34 2 34 35
M  V30 35 1 17 36
M  V30 36 1 11 37
M  V30 37 2 37 38
M  V30 38 2 3 39
M  V30 39 1 39 40
M  V30 40 2 40 41
M  V30 41 1 41 1
M  V30 42 1 7 2
M  V30 43 1 38 8
M  V30 44 1 36 14
M  V30 45 1 35 20
M  V30 46 2 33 24
M  V30 47 2 30 25
M  V30 48 1 1 42
M  V30 49 1 5 43
M  V30 50 1 6 44
M  V30 51 1 7 45
M  V30 52 1 9 46
M  V30 53 1 10 47
M  V30 54 1 15 48
M  V30 55 1 16 49
M  V30 56 1 21 50
M  V30 57 1 22 51
M  V30 58 1 27 52
M  V30 59 1 28 53
M  V30 60 1 30 54
M  V30 61 1 31 55
M  V30 62 1 32 56
M  V30 63 1 33 57
M  V30 64 1 34 58
M  V30 65 1 35 59
M  V30 66 1 37 60
M  V30 67 1 38 61
M  V30 68 1 39 62
M  V30 69 1 41 63
M  V30 END BOND
M  V30 END CTAB
M  END

$$$$
