
     RDKit          3D

  0  0  0  0  0  0  0  0  0  0999 V3000
M  V30 BEGIN CTAB
M  V30 COUNTS 63 69 0 0 0
M  V30 BEGIN ATOM
M  V30 1 C -12.7471 0.4381 -0.9243 0
M  V30 2 C -11.7367 -0.5302 -0.8550 0
M  V30 3 C -10.3763 -0.1292 -0.8298 0
M  V30 4 C -9.3599 -1.1171 -0.7539 0
M  V30 5 C -9.7200 -2.4748 -0.7364 0
M  V30 6 C -11.0615 -2.8569 -0.7685 0
M  V30 7 C -12.0668 -1.8921 -0.8216 0
M  V30 8 C -7.9219 -0.7726 -0.6803 0
M  V30 9 C -7.0434 -1.1946 -1.6906 0
M  V30 10 C -5.6836 -0.8776 -1.6195 0
M  V30 11 C -5.1890 -0.1448 -0.5332 0
M  V30 12 C -3.7921 0.1952 -0.4691 0
M  V30 13 C -2.6233 0.4854 -0.4199 0
M  V30 14 C -1.2328 0.8371 -0.3665 0
M  V30 15 C -0.6847 2.0212 -0.8410 0
M  V30 16 C 0.7026 2.0880 -0.6668 0
M  V30 17 C 1.2262 0.9560 -0.0570 0
M  V30 18 C 2.6160 0.7321 0.2248 0
M  V30 19 C 3.7852 0.5476 0.4527 0
M  V30 20 C 5.1838 0.3311 0.7134 0
M  V30 21 C 5.7943 0.9303 1.8224 0
M  V30 22 C 7.1576 0.7332 2.0644 0
M  V30 23 C 7.9238 -0.0578 1.1936 0
M  V30 24 C 9.3649 -0.2745 1.4567 0
M  V30 25 C 10.3752 0.1279 0.5439 0
M  V30 26 C 11.7331 -0.1588 0.8364 0
M  V30 27 C 12.7362 0.2299 -0.0613 0
M  V30 28 C 12.3879 0.9094 -1.2276 0
M  V30 29 N 11.0868 1.1972 -1.4869 0
M  V30 30 C 10.0864 0.8327 -0.6425 0
M  V30 31 C 12.0692 -0.8214 2.0247 0
M  V30 32 C 11.0733 -1.1930 2.9268 0
M  V30 33 C 9.7338 -0.9208 2.6482 0
M  V30 34 C 7.3031 -0.6708 0.0926 0
M  V30 35 C 5.9404 -0.4726 -0.1489 0
M  V30 36 S -0.0136 -0.1333 0.2658 0
M  V30 37 C -6.0583 0.2632 0.4861 0
M  V30 38 C -7.4183 -0.0533 0.4157 0
M  V30 39 C -10.0887 1.2490 -0.9090 0
M  V30 40 N -11.0958 2.1588 -0.9787 0
M  V30 41 C -12.4018 1.7875 -0.9815 0
M  V30 42 H -13.7926 0.1542 -0.9396 0
M  V30 43 H -8.9567 -3.2422 -0.6816 0
M  V30 44 H -11.3233 -3.9072 -0.7472 0
M  V30 45 H -13.1024 -2.2106 -0.8436 0
M  V30 46 H -7.4142 -1.7585 -2.5379 0
M  V30 47 H -5.0193 -1.2017 -2.4114 0
M  V30 48 H -1.2649 2.8099 -1.3023 0
M  V30 49 H 1.3017 2.9318 -0.9845 0
M  V30 50 H 5.2178 1.5516 2.4973 0
M  V30 51 H 7.6185 1.2047 2.9238 0
M  V30 52 H 13.7787 0.0140 0.1389 0
M  V30 53 H 13.1548 1.2161 -1.9260 0
M  V30 54 H 9.0749 1.1116 -0.9000 0
M  V30 55 H 13.1027 -1.0454 2.2592 0
M  V30 56 H 11.3401 -1.6999 3.8450 0
M  V30 57 H 8.9768 -1.2327 3.3576 0
M  V30 58 H 7.8758 -1.2994 -0.5788 0
M  V30 59 H 5.4775 -0.9441 -1.0076 0
M  V30 60 H -5.6854 0.8257 1.3337 0
M  V30 61 H -8.0797 0.2635 1.2126 0
M  V30 62 H -9.0707 1.6117 -0.9293 0
M  V30 63 H -13.1746 2.5423 -1.0371 0
M  V30 END ATOM
M  V30 BEGIN BOND
M  V30 1 2 1 2
M  V30 2 1 2 3
M  V30 3 1 3 4
M  V30 4 2 4 5
M  V30 5 1 5 6
M  V30 6 2 6 7
M  V30 7 1 4 8
M  V30 8 2 8 9
M  V30 9 1 9 10
M  V30 10 2 10 11
M  V30 11 1 11 12
M  V30 12 3 12 13
M  V30 13 1 13 14
M  V30 14 2 14 15
M  V30 15 1 15 16
M  V30 16 2 16 17
M  V30 17 1 17 18
M  V30 18 3 18 19
M  V30 19 1 19 20
M  V30 20 2 20 21
M  V30 21 1 21 22
M  V30 22 2 22 23
M  V30 23 1 23 24
M  V30 24 1 24 25
M  V30 25 1 25 26
M  V30 26 2 26 27
M  V30 27 1 27 28
M  V30 28 2 28 29
M  V30 29 1 29 30
M  V30 30 1 26 31
M  V30 31 2 31 32
M  V30 32 1 32 33
M  V30 33 1 23 34
M  V30 34 2 34 35
M  V30 35 1 17 36
M  V30 36 1 11 37
M  V30 37 2 37 38
M  V30 38 2 3 39
M  V30 39 1 39 40
M  V30 40 2 40 41
M  V30 41 1 41 1
M  V30 42 1 7 2
M  V30 43 1 38 8
M  V30 44 1 36 14
M  V30 45 1 35 20
M  V30 46 2 33 24
M  V30 47 2 30 25
M  V30 48 1 1 42
M  V30 49 1 5 43
M  V30 50 1 6 44
M  V30 51 1 7 45
M  V30 52 1 9 46
M  V30 53 1 10 47
M  V30 54 1 15 48
M  V30 55 1 16 49
M  V30 56 1 21 50
M  V30 57 1 22 51
M  V30 58 1 27 52
M  V30 59 1 28 53
M  V30 60 1 30 54
M  V30 61 1 31 55
M  V30 62 1 32 56
M  V30 63 1 33 57
M  V30 64 1 34 58
M  V30 65 1 35 59
M  V30 66 1 37 60
M  V30 67 1 38 61
M  V30 68 1 39 62
M  V30 69 1 41 63
M  V30 END BOND
M  V30 END CTAB
M  END

$$$$
