
     RDKit          3D

  0  0  0  0  0  0  0  0  0  0999 V3000
M  V30 BEGIN CTAB
M  V30 COUNTS 63 69 0 0 0
M  V30 BEGIN ATOM
M  V30 1 C -11.9421 -0.8505 2.9184 0
M  V30 2 C -11.3846 -0.9835 1.6399 0
M  V30 3 C -9.9809 -0.8746 1.4678 0
M  V30 4 C -9.4259 -1.0047 0.1679 0
M  V30 5 C -10.2756 -1.2703 -0.9187 0
M  V30 6 C -11.6542 -1.3805 -0.7359 0
M  V30 7 C -12.2093 -1.2321 0.5342 0
M  V30 8 C -7.9776 -0.8513 -0.0983 0
M  V30 9 C -7.2447 -1.9154 -0.6475 0
M  V30 10 C -5.8836 -1.7630 -0.9282 0
M  V30 11 C -5.2458 -0.5430 -0.6713 0
M  V30 12 C -3.8471 -0.3837 -0.9694 0
M  V30 13 C -2.6762 -0.2485 -1.2218 0
M  V30 14 C -1.2827 -0.0854 -1.5248 0
M  V30 15 C -0.7359 -0.0403 -2.8003 0
M  V30 16 C 0.6526 0.1372 -2.7923 0
M  V30 17 C 1.1784 0.2294 -1.5107 0
M  V30 18 C 2.5641 0.4235 -1.1905 0
M  V30 19 C 3.7269 0.5904 -0.9209 0
M  V30 20 C 5.1142 0.7947 -0.5978 0
M  V30 21 C 6.1129 0.3257 -1.4603 0
M  V30 22 C 7.4606 0.5327 -1.1506 0
M  V30 23 C 7.8213 1.2017 0.0305 0
M  V30 24 C 9.2464 1.4520 0.3456 0
M  V30 25 C 10.1797 0.4018 0.5484 0
M  V30 26 C 11.5401 0.7172 0.7967 0
M  V30 27 C 12.4697 -0.3129 0.9913 0
M  V30 28 C 12.0427 -1.6394 0.9525 0
M  V30 29 N 10.7341 -1.9287 0.7368 0
M  V30 30 C 9.8043 -0.9570 0.5404 0
M  V30 31 C 11.9498 2.0561 0.8561 0
M  V30 32 C 11.0228 3.0817 0.6781 0
M  V30 33 C 9.6834 2.7842 0.4266 0
M  V30 34 C 6.8157 1.6790 0.8863 0
M  V30 35 C 5.4684 1.4725 0.5753 0
M  V30 36 S -0.0617 0.0940 -0.3832 0
M  V30 37 C -5.9747 0.5249 -0.1335 0
M  V30 38 C -7.3358 0.3735 0.1473 0
M  V30 39 C -9.1859 -0.6661 2.6132 0
M  V30 40 N -9.7625 -0.5461 3.8380 0
M  V30 41 C -11.1066 -0.6264 4.0116 0
M  V30 42 H -13.0125 -0.9236 3.0712 0
M  V30 43 H -9.8690 -1.3750 -1.9175 0
M  V30 44 H -12.2962 -1.5765 -1.5850 0
M  V30 45 H -13.2828 -1.3190 0.6536 0
M  V30 46 H -7.7269 -2.8631 -0.8536 0
M  V30 47 H -5.3301 -2.5942 -1.3482 0
M  V30 48 H -1.3189 -0.1301 -3.7077 0
M  V30 49 H 1.2497 0.1987 -3.6929 0
M  V30 50 H 5.8500 -0.1940 -2.3737 0
M  V30 51 H 8.2233 0.1766 -1.8323 0
M  V30 52 H 13.5147 -0.0943 1.1769 0
M  V30 53 H 12.7525 -2.4420 1.1031 0
M  V30 54 H 8.7764 -1.2564 0.3932 0
M  V30 55 H 12.9859 2.3092 1.0476 0
M  V30 56 H 11.3448 4.1136 0.7290 0
M  V30 57 H 8.9846 3.5984 0.2765 0
M  V30 58 H 7.0760 2.2069 1.7955 0
M  V30 59 H 4.7036 1.8440 1.2468 0
M  V30 60 H -5.4925 1.4749 0.0632 0
M  V30 61 H -7.8915 1.2108 0.5516 0
M  V30 62 H -8.1085 -0.6100 2.5483 0
M  V30 63 H -11.5274 -0.5236 5.0030 0
M  V30 END ATOM
M  V30 BEGIN BOND
M  V30 1 2 1 2
M  V30 2 1 2 3
M  V30 3 1 3 4
M  V30 4 2 4 5
M  V30 5 1 5 6
M  V30 6 2 6 7
M  V30 7 1 4 8
M  V30 8 2 8 9
M  V30 9 1 9 10
M  V30 10 2 10 11
M  V30 11 1 11 12
M  V30 12 3 12 13
M  V30 13 1 13 14
M  V30 14 2 14 15
M  V30 15 1 15 16
M  V30 16 2 16 17
M  V30 17 1 17 18
M  V30 18 3 18 19
M  V30 19 1 19 20
M  V30 20 2 20 21
M  V30 21 1 21 22
M  V30 22 2 22 23
M  V30 23 1 23 24
M  V30 24 1 24 25
M  V30 25 1 25 26
M  V30 26 2 26 27
M  V30 27 1 27 28
M  V30 28 2 28 29
M  V30 29 1 29 30
M  V30 30 1 26 31
M  V30 31 2 31 32
M  V30 32 1 32 33
M  V30 33 1 23 34
M  V30 34 2 34 35
M  V30 35 1 17 36
M  V30 36 1 11 37
M  V30 37 2 37 38
M  V30 38 2 3 39
M  V30 39 1 39 40
M  V30 40 2 40 41
M  V30 41 1 41 1
M  V30 42 1 7 2
M  V30 43 1 38 8
M  V30 44 1 36 14
M  V30 45 1 35 20
M  V30 46 2 33 24
M  V30 47 2 30 25
M  V30 48 1 1 42
M  V30 49 1 5 43
M  V30 50 1 6 44
M  V30 51 1 7 45
M  V30 52 1 9 46
M  V30 53 1 10 47
M  V30 54 1 15 48
M  V30 55 1 16 49
M  V30 56 1 21 50
M  V30 57 1 22 51
M  V30 58 1 27 52
M  V30 59 1 28 53
M  V30 60 1 30 54
M  V30 61 1 31 55
M  V30 62 1 32 56
M  V30 63 1 33 57
M  V30 64 1 34 58
M  V30 65 1 35 59
M  V30 66 1 37 60
M  V30 67 1 38 61
M  V30 68 1 39 62
M  V30 69 1 41 63
M  V30 END BOND
M  V30 END CTAB
M  END

$$$$
