
     RDKit          3D

  0  0  0  0  0  0  0  0  0  0999 V3000
M  V30 BEGIN CTAB
M  V30 COUNTS 63 69 0 0 0
M  V30 BEGIN ATOM
M  V30 1 C 12.0742 1.0099 -1.4796 0
M  V30 2 C 11.4287 0.6479 -0.2899 0
M  V30 3 C 10.0169 0.5139 -0.2662 0
M  V30 4 C 9.3722 0.1419 0.9424 0
M  V30 5 C 10.1431 -0.0554 2.0999 0
M  V30 6 C 11.5304 0.0853 2.0654 0
M  V30 7 C 12.1734 0.4282 0.8770 0
M  V30 8 C 7.9090 -0.0646 1.0326 0
M  V30 9 C 7.1371 0.7265 1.8981 0
M  V30 10 C 5.7584 0.5187 2.0021 0
M  V30 11 C 5.1410 -0.4870 1.2481 0
M  V30 12 C 3.7218 -0.6995 1.3545 0
M  V30 13 C 2.5329 -0.8771 1.4432 0
M  V30 14 C 1.1169 -1.0883 1.5485 0
M  V30 15 C 0.5012 -2.0331 2.3582 0
M  V30 16 C -0.8946 -2.0128 2.2549 0
M  V30 17 C -1.3571 -1.0525 1.3653 0
M  V30 18 C -2.7354 -0.8029 1.0512 0
M  V30 19 C -3.8927 -0.5946 0.7863 0
M  V30 20 C -5.2743 -0.3480 0.4685 0
M  V30 21 C -6.2532 -1.2859 0.8196 0
M  V30 22 C -7.5954 -1.0491 0.5076 0
M  V30 23 C -7.9686 0.1239 -0.1673 0
M  V30 24 C -9.3926 0.3808 -0.4807 0
M  V30 25 C -9.8660 0.5263 -1.8110 0
M  V30 26 C -11.2357 0.8190 -2.0349 0
M  V30 27 C -11.7108 0.9697 -3.3444 0
M  V30 28 C -10.8320 0.8150 -4.4155 0
M  V30 29 N -9.5278 0.5131 -4.1899 0
M  V30 30 C -9.0297 0.3636 -2.9343 0
M  V30 31 C -12.1119 0.9470 -0.9483 0
M  V30 32 C -11.6435 0.7800 0.3541 0
M  V30 33 C -10.2973 0.4978 0.5873 0
M  V30 34 C -6.9852 1.0684 -0.5039 0
M  V30 35 C -5.6434 0.8308 -0.1914 0
M  V30 36 S -0.0520 -0.2255 0.7026 0
M  V30 37 C 5.9085 -1.2878 0.3931 0
M  V30 38 C 7.2875 -1.0815 0.2896 0
M  V30 39 C 9.3042 0.7865 -1.4518 0
M  V30 40 N 9.9650 1.1394 -2.5857 0
M  V30 41 C 11.3176 1.2491 -2.6257 0
M  V30 42 H 13.1521 1.1122 -1.5214 0
M  V30 43 H 9.6672 -0.3367 3.0318 0
M  V30 44 H 12.1109 -0.0780 2.9642 0
M  V30 45 H 13.2523 0.5295 0.8717 0
M  V30 46 H 7.6027 1.5076 2.4865 0
M  V30 47 H 5.1747 1.1407 2.6701 0
M  V30 48 H 1.0402 -2.7156 3.0023 0
M  V30 49 H -1.5420 -2.6784 2.8110 0
M  V30 50 H -5.9790 -2.1992 1.3338 0
M  V30 51 H -8.3427 -1.7828 0.7841 0
M  V30 52 H -12.7520 1.1991 -3.5377 0
M  V30 53 H -11.1895 0.9268 -5.4304 0
M  V30 54 H -7.9859 0.1052 -2.8264 0
M  V30 55 H -13.1607 1.1685 -1.1068 0
M  V30 56 H -12.3264 0.8753 1.1885 0
M  V30 57 H -9.9542 0.3863 1.6089 0
M  V30 58 H -7.2590 1.9877 -1.0070 0
M  V30 59 H -4.8950 1.5658 -0.4621 0
M  V30 60 H 5.4419 -2.0725 -0.1902 0
M  V30 61 H 7.8718 -1.7143 -0.3672 0
M  V30 62 H 8.2251 0.7355 -1.4847 0
M  V30 63 H 11.8065 1.5316 -3.5484 0
M  V30 END ATOM
M  V30 BEGIN BOND
M  V30 1 2 1 2
M  V30 2 1 2 3
M  V30 3 1 3 4
M  V30 4 2 4 5
M  V30 5 1 5 6
M  V30 6 2 6 7
M  V30 7 1 4 8
M  V30 8 2 8 9
M  V30 9 1 9 10
M  V30 10 2 10 11
M  V30 11 1 11 12
M  V30 12 3 12 13
M  V30 13 1 13 14
M  V30 14 2 14 15
M  V30 15 1 15 16
M  V30 16 2 16 17
M  V30 17 1 17 18
M  V30 18 3 18 19
M  V30 19 1 19 20
M  V30 20 2 20 21
M  V30 21 1 21 22
M  V30 22 2 22 23
M  V30 23 1 23 24
M  V30 24 1 24 25
M  V30 25 1 25 26
M  V30 26 2 26 27
M  V30 27 1 27 28
M  V30 28 2 28 29
M  V30 29 1 29 30
M  V30 30 1 26 31
M  V30 31 2 31 32
M  V30 32 1 32 33
M  V30 33 1 23 34
M  V30 34 2 34 35
M  V30 35 1 17 36
M  V30 36 1 11 37
M  V30 37 2 37 38
M  V30 38 2 3 39
M  V30 39 1 39 40
M  V30 40 2 40 41
M  V30 41 1 41 1
M  V30 42 1 7 2
M  V30 43 1 38 8
M  V30 44 1 36 14
M  V30 45 1 35 20
M  V30 46 2 33 24
M  V30 47 2 30 25
M  V30 48 1 1 42
M  V30 49 1 5 43
M  V30 50 1 6 44
M  V30 51 1 7 45
M  V30 52 1 9 46
M  V30 53 1 10 47
M  V30 54 1 15 48
M  V30 55 1 16 49
M  V30 56 1 21 50
M  V30 57 1 22 51
M  V30 58 1 27 52
M  V30 59 1 28 53
M  V30 60 1 30 54
M  V30 61 1 31 55
M  V30 62 1 32 56
M  V30 63 1 33 57
M  V30 64 1 34 58
M  V30 65 1 35 59
M  V30 66 1 37 60
M  V30 67 1 38 61
M  V30 68 1 39 62
M  V30 69 1 41 63
M  V30 END BOND
M  V30 END CTAB
M  END

$$$$
