
     RDKit          3D

  0  0  0  0  0  0  0  0  0  0999 V3000
M  V30 BEGIN CTAB
M  V30 COUNTS 63 69 0 0 0
M  V30 BEGIN ATOM
M  V30 1 C -12.2792 2.3893 -0.8145 0
M  V30 2 C -11.5226 1.2530 -1.1300 0
M  V30 3 C -10.1481 1.2025 -0.7836 0
M  V30 4 C -9.3906 0.0454 -1.1032 0
M  V30 5 C -10.0103 -1.0151 -1.7847 0
M  V30 6 C -11.3618 -0.9516 -2.1247 0
M  V30 7 C -12.1181 0.1721 -1.7948 0
M  V30 8 C -7.9650 -0.0996 -0.7311 0
M  V30 9 C -7.5818 -0.1225 0.6199 0
M  V30 10 C -6.2370 -0.2801 0.9686 0
M  V30 11 C -5.2654 -0.4257 -0.0295 0
M  V30 12 C -3.8811 -0.5865 0.3290 0
M  V30 13 C -2.7210 -0.7201 0.6278 0
M  V30 14 C -1.3387 -0.8779 0.9817 0
M  V30 15 C -0.8674 -1.3701 2.1914 0
M  V30 16 C 0.5304 -1.4093 2.2563 0
M  V30 17 C 1.1387 -0.9468 1.0971 0
M  V30 18 C 2.5545 -0.8681 0.8731 0
M  V30 19 C 3.7431 -0.8012 0.6843 0
M  V30 20 C 5.1621 -0.7203 0.4587 0
M  V30 21 C 5.9342 -1.8880 0.4177 0
M  V30 22 C 7.3131 -1.8096 0.1990 0
M  V30 23 C 7.9328 -0.5614 0.0286 0
M  V30 24 C 9.3895 -0.4820 -0.2242 0
M  V30 25 C 10.2787 0.1977 0.6488 0
M  V30 26 C 11.6556 0.2767 0.3175 0
M  V30 27 C 12.5397 0.9506 1.1704 0
M  V30 28 C 12.0566 1.5245 2.3453 0
M  V30 29 N 10.7407 1.4235 2.6632 0
M  V30 30 C 9.8526 0.7815 1.8593 0
M  V30 31 C 12.1301 -0.3265 -0.8555 0
M  V30 32 C 11.2540 -1.0118 -1.6960 0
M  V30 33 C 9.8966 -1.0913 -1.3838 0
M  V30 34 C 7.1518 0.6056 0.0563 0
M  V30 35 C 5.7733 0.5263 0.2755 0
M  V30 36 S -0.0393 -0.4887 -0.0115 0
M  V30 37 C -5.6444 -0.4174 -1.3777 0
M  V30 38 C -6.9890 -0.2598 -1.7273 0
M  V30 39 C -9.5805 2.3286 -0.1533 0
M  V30 40 N -10.3456 3.4147 0.1334 0
M  V30 41 C -11.6669 3.4656 -0.1742 0
M  V30 42 H -13.3319 2.4466 -1.0652 0
M  V30 43 H -9.4465 -1.9046 -2.0394 0
M  V30 44 H -11.8266 -1.7808 -2.6423 0
M  V30 45 H -13.1669 0.1996 -2.0658 0
M  V30 46 H -8.3251 -0.0203 1.4011 0
M  V30 47 H -5.9555 -0.2913 2.0147 0
M  V30 48 H -1.5099 -1.6902 3.0014 0
M  V30 49 H 1.0761 -1.7631 3.1218 0
M  V30 50 H 5.4706 -2.8578 0.5538 0
M  V30 51 H 7.8992 -2.7201 0.1695 0
M  V30 52 H 13.5944 1.0277 0.9337 0
M  V30 53 H 12.7316 2.0449 3.0116 0
M  V30 54 H 8.8227 0.7220 2.1814 0
M  V30 55 H 13.1801 -0.2744 -1.1182 0
M  V30 56 H 11.6277 -1.4795 -2.5979 0
M  V30 57 H 9.2328 -1.6168 -2.0600 0
M  V30 58 H 7.6113 1.5750 -0.0935 0
M  V30 59 H 5.1844 1.4353 0.2992 0
M  V30 60 H -4.9013 -0.5331 -2.1576 0
M  V30 61 H -7.2691 -0.2552 -2.7737 0
M  V30 62 H -8.5309 2.3614 0.1027 0
M  V30 63 H -12.2420 4.3483 0.0716 0
M  V30 END ATOM
M  V30 BEGIN BOND
M  V30 1 2 1 2
M  V30 2 1 2 3
M  V30 3 1 3 4
M  V30 4 2 4 5
M  V30 5 1 5 6
M  V30 6 2 6 7
M  V30 7 1 4 8
M  V30 8 2 8 9
M  V30 9 1 9 10
M  V30 10 2 10 11
M  V30 11 1 11 12
M  V30 12 3 12 13
M  V30 13 1 13 14
M  V30 14 2 14 15
M  V30 15 1 15 16
M  V30 16 2 16 17
M  V30 17 1 17 18
M  V30 18 3 18 19
M  V30 19 1 19 20
M  V30 20 2 20 21
M  V30 21 1 21 22
M  V30 22 2 22 23
M  V30 23 1 23 24
M  V30 24 1 24 25
M  V30 25 1 25 26
M  V30 26 2 26 27
M  V30 27 1 27 28
M  V30 28 2 28 29
M  V30 29 1 29 30
M  V30 30 1 26 31
M  V30 31 2 31 32
M  V30 32 1 32 33
M  V30 33 1 23 34
M  V30 34 2 34 35
M  V30 35 1 17 36
M  V30 36 1 11 37
M  V30 37 2 37 38
M  V30 38 2 3 39
M  V30 39 1 39 40
M  V30 40 2 40 41
M  V30 41 1 41 1
M  V30 42 1 7 2
M  V30 43 1 38 8
M  V30 44 1 36 14
M  V30 45 1 35 20
M  V30 46 2 33 24
M  V30 47 2 30 25
M  V30 48 1 1 42
M  V30 49 1 5 43
M  V30 50 1 6 44
M  V30 51 1 7 45
M  V30 52 1 9 46
M  V30 53 1 10 47
M  V30 54 1 15 48
M  V30 55 1 16 49
M  V30 56 1 21 50
M  V30 57 1 22 51
M  V30 58 1 27 52
M  V30 59 1 28 53
M  V30 60 1 30 54
M  V30 61 1 31 55
M  V30 62 1 32 56
M  V30 63 1 33 57
M  V30 64 1 34 58
M  V30 65 1 35 59
M  V30 66 1 37 60
M  V30 67 1 38 61
M  V30 68 1 39 62
M  V30 69 1 41 63
M  V30 END BOND
M  V30 END CTAB
M  END

$$$$
