
     RDKit          3D

  0  0  0  0  0  0  0  0  0  0999 V3000
M  V30 BEGIN CTAB
M  V30 COUNTS 63 69 0 0 0
M  V30 BEGIN ATOM
M  V30 1 C -12.3326 -1.0150 2.0264 0
M  V30 2 C -11.6009 -0.5659 0.9191 0
M  V30 3 C -10.1944 -0.4117 1.0189 0
M  V30 4 C -9.4621 0.0489 -0.1064 0
M  V30 5 C -10.1412 0.3125 -1.3073 0
M  V30 6 C -11.5241 0.1514 -1.3949 0
M  V30 7 C -12.2537 -0.2788 -0.2876 0
M  V30 8 C -8.0005 0.2814 -0.0630 0
M  V30 9 C -7.1460 -0.4408 -0.9112 0
M  V30 10 C -5.7673 -0.2091 -0.8861 0
M  V30 11 C -5.2324 0.7529 -0.0202 0
M  V30 12 C -3.8132 0.9899 0.0057 0
M  V30 13 C -2.6243 1.1873 0.0269 0
M  V30 14 C -1.2082 1.4210 0.0515 0
M  V30 15 C -0.5948 2.6173 0.3989 0
M  V30 16 C 0.8019 2.5532 0.3317 0
M  V30 17 C 1.2674 1.3077 -0.0682 0
M  V30 18 C 2.6474 0.9449 -0.2253 0
M  V30 19 C 3.8058 0.6389 -0.3571 0
M  V30 20 C 5.1884 0.2723 -0.5145 0
M  V30 21 C 5.9547 0.8455 -1.5371 0
M  V30 22 C 7.2976 0.4877 -1.6916 0
M  V30 23 C 7.8880 -0.4399 -0.8185 0
M  V30 24 C 9.3032 -0.8359 -0.9996 0
M  V30 25 C 10.2887 -0.6226 -0.0006 0
M  V30 26 C 11.6149 -1.0742 -0.2226 0
M  V30 27 C 12.5929 -0.8733 0.7604 0
M  V30 28 C 12.2535 -0.2170 1.9424 0
M  V30 29 N 10.9864 0.2308 2.1346 0
M  V30 30 C 10.0102 0.0510 1.2062 0
M  V30 31 C 11.9463 -1.7109 -1.4266 0
M  V30 32 C 10.9779 -1.8956 -2.4123 0
M  V30 33 C 9.6688 -1.4613 -2.2031 0
M  V30 34 C 7.1115 -1.0218 0.1970 0
M  V30 35 C 5.7690 -0.6631 0.3510 0
M  V30 36 S -0.0361 0.2811 -0.3397 0
M  V30 37 C -6.0820 1.4859 0.8179 0
M  V30 38 C -7.4608 1.2549 0.7935 0
M  V30 39 C -9.5740 -0.7528 2.2380 0
M  V30 40 N -10.3168 -1.1891 3.2892 0
M  V30 41 C -11.6659 -1.3195 3.2121 0
M  V30 42 H -13.4083 -1.1346 1.9737 0
M  V30 43 H -9.5977 0.6617 -2.1772 0
M  V30 44 H -12.0338 0.3666 -2.3253 0
M  V30 45 H -13.3275 -0.3947 -0.3764 0
M  V30 46 H -7.5474 -1.1873 -1.5857 0
M  V30 47 H -5.1193 -0.7788 -1.5414 0
M  V30 48 H -1.1362 3.5078 0.6914 0
M  V30 49 H 1.4479 3.3892 0.5671 0
M  V30 50 H 5.5140 1.5668 -2.2149 0
M  V30 51 H 7.8793 0.9374 -2.4870 0
M  V30 52 H 13.6106 -1.2154 0.6137 0
M  V30 53 H 13.0020 -0.0551 2.7065 0
M  V30 54 H 9.0273 0.4491 1.4150 0
M  V30 55 H 12.9564 -2.0589 -1.6082 0
M  V30 56 H 11.2415 -2.3835 -3.3419 0
M  V30 57 H 8.9304 -1.6294 -2.9781 0
M  V30 58 H 7.5462 -1.7542 0.8663 0
M  V30 59 H 5.1834 -1.1172 1.1414 0
M  V30 60 H -5.6793 2.2367 1.4871 0
M  V30 61 H -8.1085 1.8346 1.4399 0
M  V30 62 H -8.5022 -0.6896 2.3616 0
M  V30 63 H -12.2216 -1.6692 4.0719 0
M  V30 END ATOM
M  V30 BEGIN BOND
M  V30 1 2 1 2
M  V30 2 1 2 3
M  V30 3 1 3 4
M  V30 4 2 4 5
M  V30 5 1 5 6
M  V30 6 2 6 7
M  V30 7 1 4 8
M  V30 8 2 8 9
M  V30 9 1 9 10
M  V30 10 2 10 11
M  V30 11 1 11 12
M  V30 12 3 12 13
M  V30 13 1 13 14
M  V30 14 2 14 15
M  V30 15 1 15 16
M  V30 16 2 16 17
M  V30 17 1 17 18
M  V30 18 3 18 19
M  V30 19 1 19 20
M  V30 20 2 20 21
M  V30 21 1 21 22
M  V30 22 2 22 23
M  V30 23 1 23 24
M  V30 24 1 24 25
M  V30 25 1 25 26
M  V30 26 2 26 27
M  V30 27 1 27 28
M  V30 28 2 28 29
M  V30 29 1 29 30
M  V30 30 1 26 31
M  V30 31 2 31 32
M  V30 32 1 32 33
M  V30 33 1 23 34
M  V30 34 2 34 35
M  V30 35 1 17 36
M  V30 36 1 11 37
M  V30 37 2 37 38
M  V30 38 2 3 39
M  V30 39 1 39 40
M  V30 40 2 40 41
M  V30 41 1 41 1
M  V30 42 1 7 2
M  V30 43 1 38 8
M  V30 44 1 36 14
M  V30 45 1 35 20
M  V30 46 2 33 24
M  V30 47 2 30 25
M  V30 48 1 1 42
M  V30 49 1 5 43
M  V30 50 1 6 44
M  V30 51 1 7 45
M  V30 52 1 9 46
M  V30 53 1 10 47
M  V30 54 1 15 48
M  V30 55 1 16 49
M  V30 56 1 21 50
M  V30 57 1 22 51
M  V30 58 1 27 52
M  V30 59 1 28 53
M  V30 60 1 30 54
M  V30 61 1 31 55
M  V30 62 1 32 56
M  V30 63 1 33 57
M  V30 64 1 34 58
M  V30 65 1 35 59
M  V30 66 1 37 60
M  V30 67 1 38 61
M  V30 68 1 39 62
M  V30 69 1 41 63
M  V30 END BOND
M  V30 END CTAB
M  END

$$$$
