
     RDKit          3D

  0  0  0  0  0  0  0  0  0  0999 V3000
M  V30 BEGIN CTAB
M  V30 COUNTS 63 69 0 0 0
M  V30 BEGIN ATOM
M  V30 1 C 12.7318 -0.1640 0.3648 0
M  V30 2 C 11.6063 -0.6705 1.0279 0
M  V30 3 C 10.3084 -0.2650 0.6245 0
M  V30 4 C 9.1738 -0.7876 1.2986 0
M  V30 5 C 9.3604 -1.6721 2.3738 0
M  V30 6 C 10.6423 -2.0588 2.7652 0
M  V30 7 C 11.7608 -1.5678 2.0936 0
M  V30 8 C 7.7876 -0.4510 0.9019 0
M  V30 9 C 6.9284 0.1852 1.8119 0
M  V30 10 C 5.6110 0.4809 1.4487 0
M  V30 11 C 5.1388 0.1353 0.1763 0
M  V30 12 C 3.7808 0.4337 -0.1945 0
M  V30 13 C 2.6422 0.6804 -0.5037 0
M  V30 14 C 1.2848 0.9699 -0.8700 0
M  V30 15 C 0.8892 1.8173 -1.8961 0
M  V30 16 C -0.5020 1.9013 -2.0277 0
M  V30 17 C -1.1807 1.1184 -1.1034 0
M  V30 18 C -2.6073 0.9977 -1.0002 0
M  V30 19 C -3.8049 0.8932 -0.9119 0
M  V30 20 C -5.2341 0.7652 -0.8050 0
M  V30 21 C -5.8705 -0.3953 -1.2626 0
M  V30 22 C -7.2588 -0.5218 -1.1565 0
M  V30 23 C -8.0218 0.5080 -0.5821 0
M  V30 24 C -9.4943 0.3864 -0.4884 0
M  V30 25 C -10.1285 -0.6284 0.2751 0
M  V30 26 C -11.5441 -0.7153 0.2788 0
M  V30 27 C -12.1786 -1.7171 1.0250 0
M  V30 28 C -11.4092 -2.6103 1.7688 0
M  V30 29 N -10.0559 -2.5040 1.7754 0
M  V30 30 C -9.4049 -1.5483 1.0612 0
M  V30 31 C -12.3048 0.2054 -0.4550 0
M  V30 32 C -11.6750 1.2131 -1.1839 0
M  V30 33 C -10.2831 1.3052 -1.2000 0
M  V30 34 C -7.3805 1.6753 -0.1378 0
M  V30 35 C -5.9920 1.8010 -0.2446 0
M  V30 36 S -0.0735 0.3203 -0.1222 0
M  V30 37 C 5.9882 -0.5103 -0.7308 0
M  V30 38 C 7.3055 -0.8070 -0.3683 0
M  V30 39 C 10.2015 0.6719 -0.4235 0
M  V30 40 N 11.3166 1.1439 -1.0405 0
M  V30 41 C 12.5627 0.7459 -0.6775 0
M  V30 42 H 13.7321 -0.4647 0.6531 0
M  V30 43 H 8.5059 -2.0786 2.9016 0
M  V30 44 H 10.7688 -2.7477 3.5904 0
M  V30 45 H 12.7473 -1.8835 2.4118 0
M  V30 46 H 7.2810 0.4565 2.7995 0
M  V30 47 H 4.9607 0.9762 2.1598 0
M  V30 48 H 1.5806 2.3562 -2.5310 0
M  V30 49 H -0.9932 2.5116 -2.7743 0
M  V30 50 H -5.2943 -1.2000 -1.7032 0
M  V30 51 H -7.7402 -1.4205 -1.5227 0
M  V30 52 H -13.2586 -1.8048 1.0373 0
M  V30 53 H -11.8897 -3.3860 2.3499 0
M  V30 54 H -8.3268 -1.5083 1.1256 0
M  V30 55 H -13.3870 0.1501 -0.4585 0
M  V30 56 H -12.2685 1.9237 -1.7446 0
M  V30 57 H -9.8161 2.0879 -1.7858 0
M  V30 58 H -7.9555 2.4835 0.2975 0
M  V30 59 H -5.5099 2.7044 0.1092 0
M  V30 60 H 5.6310 -0.7881 -1.7152 0
M  V30 61 H 7.9492 -1.3167 -1.0748 0
M  V30 62 H 9.2409 1.0446 -0.7498 0
M  V30 63 H 13.4256 1.1442 -1.1944 0
M  V30 END ATOM
M  V30 BEGIN BOND
M  V30 1 2 1 2
M  V30 2 1 2 3
M  V30 3 1 3 4
M  V30 4 2 4 5
M  V30 5 1 5 6
M  V30 6 2 6 7
M  V30 7 1 4 8
M  V30 8 2 8 9
M  V30 9 1 9 10
M  V30 10 2 10 11
M  V30 11 1 11 12
M  V30 12 3 12 13
M  V30 13 1 13 14
M  V30 14 2 14 15
M  V30 15 1 15 16
M  V30 16 2 16 17
M  V30 17 1 17 18
M  V30 18 3 18 19
M  V30 19 1 19 20
M  V30 20 2 20 21
M  V30 21 1 21 22
M  V30 22 2 22 23
M  V30 23 1 23 24
M  V30 24 1 24 25
M  V30 25 1 25 26
M  V30 26 2 26 27
M  V30 27 1 27 28
M  V30 28 2 28 29
M  V30 29 1 29 30
M  V30 30 1 26 31
M  V30 31 2 31 32
M  V30 32 1 32 33
M  V30 33 1 23 34
M  V30 34 2 34 35
M  V30 35 1 17 36
M  V30 36 1 11 37
M  V30 37 2 37 38
M  V30 38 2 3 39
M  V30 39 1 39 40
M  V30 40 2 40 41
M  V30 41 1 41 1
M  V30 42 1 7 2
M  V30 43 1 38 8
M  V30 44 1 36 14
M  V30 45 1 35 20
M  V30 46 2 33 24
M  V30 47 2 30 25
M  V30 48 1 1 42
M  V30 49 1 5 43
M  V30 50 1 6 44
M  V30 51 1 7 45
M  V30 52 1 9 46
M  V30 53 1 10 47
M  V30 54 1 15 48
M  V30 55 1 16 49
M  V30 56 1 21 50
M  V30 57 1 22 51
M  V30 58 1 27 52
M  V30 59 1 28 53
M  V30 60 1 30 54
M  V30 61 1 31 55
M  V30 62 1 32 56
M  V30 63 1 33 57
M  V30 64 1 34 58
M  V30 65 1 35 59
M  V30 66 1 37 60
M  V30 67 1 38 61
M  V30 68 1 39 62
M  V30 69 1 41 63
M  V30 END BOND
M  V30 END CTAB
M  END

$$$$
