
     RDKit          3D

  0  0  0  0  0  0  0  0  0  0999 V3000
M  V30 BEGIN CTAB
M  V30 COUNTS 63 69 0 0 0
M  V30 BEGIN ATOM
M  V30 1 C -12.3446 1.6767 0.3553 0
M  V30 2 C -11.5980 0.5092 0.5620 0
M  V30 3 C -10.1939 0.5254 0.3623 0
M  V30 4 C -9.4466 -0.6636 0.5684 0
M  V30 5 C -10.1088 -1.8256 0.9979 0
M  V30 6 C -11.4895 -1.8275 1.1968 0
M  V30 7 C -12.2338 -0.6699 0.9743 0
M  V30 8 C -7.9871 -0.7372 0.3304 0
M  V30 9 C -7.1160 -1.0611 1.3827 0
M  V30 10 C -5.7394 -1.1531 1.1553 0
M  V30 11 C -5.2231 -0.9314 -0.1275 0
M  V30 12 C -3.8064 -1.0272 -0.3613 0
M  V30 13 C -2.6198 -1.1076 -0.5575 0
M  V30 14 C -1.2067 -1.2035 -0.7914 0
M  V30 15 C -0.5900 -2.1183 -1.6344 0
M  V30 16 C 0.8023 -1.9778 -1.6660 0
M  V30 17 C 1.2612 -0.9544 -0.8476 0
M  V30 18 C 2.6357 -0.5776 -0.6767 0
M  V30 19 C 3.7900 -0.2614 -0.5331 0
M  V30 20 C 5.1681 0.1158 -0.3618 0
M  V30 21 C 6.1581 -0.4571 -1.1700 0
M  V30 22 C 7.4971 -0.0909 -1.0039 0
M  V30 23 C 7.8587 0.8447 -0.0207 0
M  V30 24 C 9.2730 1.2512 0.1426 0
M  V30 25 C 10.2918 0.3352 0.5137 0
M  V30 26 C 11.6342 0.7846 0.6025 0
M  V30 27 C 12.6473 -0.1138 0.9625 0
M  V30 28 C 12.3209 -1.4394 1.2441 0
M  V30 29 N 11.0296 -1.8532 1.1776 0
M  V30 30 C 10.0208 -1.0121 0.8282 0
M  V30 31 C 11.9430 2.1264 0.3400 0
M  V30 32 C 10.9332 3.0249 -0.0014 0
M  V30 33 C 9.6102 2.5935 -0.0979 0
M  V30 34 C 6.8608 1.4262 0.7775 0
M  V30 35 C 5.5219 1.0595 0.6106 0
M  V30 36 S -0.0428 -0.2190 -0.0824 0
M  V30 37 C -6.0891 -0.6211 -1.1834 0
M  V30 38 C -7.4657 -0.5292 -0.9571 0
M  V30 39 C -9.5905 1.7439 -0.0106 0
M  V30 40 N -10.3473 2.8571 -0.1978 0
M  V30 41 C -11.6945 2.8477 -0.0312 0
M  V30 42 H -13.4189 1.6850 0.4965 0
M  V30 43 H -9.5539 -2.7414 1.1631 0
M  V30 44 H -11.9860 -2.7335 1.5197 0
M  V30 45 H -13.3057 -0.6941 1.1318 0
M  V30 46 H -7.5029 -1.2354 2.3793 0
M  V30 47 H -5.0786 -1.3979 1.9783 0
M  V30 48 H -1.1260 -2.8632 -2.2082 0
M  V30 49 H 1.4499 -2.6033 -2.2668 0
M  V30 50 H 5.8946 -1.1835 -1.9294 0
M  V30 51 H 8.2523 -0.5338 -1.6417 0
M  V30 52 H 13.6800 0.2071 1.0306 0
M  V30 53 H 13.0956 -2.1403 1.5252 0
M  V30 54 H 9.0130 -1.4023 0.8130 0
M  V30 55 H 12.9645 2.4819 0.4064 0
M  V30 56 H 11.1778 4.0609 -0.1980 0
M  V30 57 H 8.8450 3.3072 -0.3792 0
M  V30 58 H 7.1213 2.1576 1.5328 0
M  V30 59 H 4.7633 1.5119 1.2381 0
M  V30 60 H -5.7008 -0.4538 -2.1810 0
M  V30 61 H -8.1261 -0.2985 -1.7841 0
M  V30 62 H -8.5208 1.8256 -0.1420 0
M  V30 63 H -12.2618 3.7549 -0.1911 0
M  V30 END ATOM
M  V30 BEGIN BOND
M  V30 1 2 1 2
M  V30 2 1 2 3
M  V30 3 1 3 4
M  V30 4 2 4 5
M  V30 5 1 5 6
M  V30 6 2 6 7
M  V30 7 1 4 8
M  V30 8 2 8 9
M  V30 9 1 9 10
M  V30 10 2 10 11
M  V30 11 1 11 12
M  V30 12 3 12 13
M  V30 13 1 13 14
M  V30 14 2 14 15
M  V30 15 1 15 16
M  V30 16 2 16 17
M  V30 17 1 17 18
M  V30 18 3 18 19
M  V30 19 1 19 20
M  V30 20 2 20 21
M  V30 21 1 21 22
M  V30 22 2 22 23
M  V30 23 1 23 24
M  V30 24 1 24 25
M  V30 25 1 25 26
M  V30 26 2 26 27
M  V30 27 1 27 28
M  V30 28 2 28 29
M  V30 29 1 29 30
M  V30 30 1 26 31
M  V30 31 2 31 32
M  V30 32 1 32 33
M  V30 33 1 23 34
M  V30 34 2 34 35
M  V30 35 1 17 36
M  V30 36 1 11 37
M  V30 37 2 37 38
M  V30 38 2 3 39
M  V30 39 1 39 40
M  V30 40 2 40 41
M  V30 41 1 41 1
M  V30 42 1 7 2
M  V30 43 1 38 8
M  V30 44 1 36 14
M  V30 45 1 35 20
M  V30 46 2 33 24
M  V30 47 2 30 25
M  V30 48 1 1 42
M  V30 49 1 5 43
M  V30 50 1 6 44
M  V30 51 1 7 45
M  V30 52 1 9 46
M  V30 53 1 10 47
M  V30 54 1 15 48
M  V30 55 1 16 49
M  V30 56 1 21 50
M  V30 57 1 22 51
M  V30 58 1 27 52
M  V30 59 1 28 53
M  V30 60 1 30 54
M  V30 61 1 31 55
M  V30 62 1 32 56
M  V30 63 1 33 57
M  V30 64 1 34 58
M  V30 65 1 35 59
M  V30 66 1 37 60
M  V30 67 1 38 61
M  V30 68 1 39 62
M  V30 69 1 41 63
M  V30 END BOND
M  V30 END CTAB
M  END

$$$$
