
     RDKit          3D

  0  0  0  0  0  0  0  0  0  0999 V3000
M  V30 BEGIN CTAB
M  V30 COUNTS 63 69 0 0 0
M  V30 BEGIN ATOM
M  V30 1 C -11.9393 1.2477 -1.9202 0
M  V30 2 C -11.3723 0.5050 -0.8762 0
M  V30 3 C -9.9675 0.3152 -0.8278 0
M  V30 4 C -9.4014 -0.4338 0.2368 0
M  V30 5 C -10.2476 -1.0001 1.2045 0
M  V30 6 C -11.6285 -0.8116 1.1428 0
M  V30 7 C -12.1902 -0.0580 0.1132 0
M  V30 8 C -7.9412 -0.6312 0.3822 0
M  V30 9 C -7.0924 0.4686 0.5886 0
M  V30 10 C -5.7165 0.2773 0.7467 0
M  V30 11 C -5.1786 -1.0152 0.7100 0
M  V30 12 C -3.7624 -1.2118 0.8729 0
M  V30 13 C -2.5761 -1.3765 1.0090 0
M  V30 14 C -1.1633 -1.5726 1.1709 0
M  V30 15 C -0.5704 -2.5819 1.9175 0
M  V30 16 C 0.8282 -2.5271 1.8944 0
M  V30 17 C 1.3155 -1.4755 1.1300 0
M  V30 18 C 2.7026 -1.1697 0.9220 0
M  V30 19 C 3.8672 -0.9129 0.7472 0
M  V30 20 C 5.2576 -0.6062 0.5381 0
M  V30 21 C 5.9844 -1.2816 -0.4504 0
M  V30 22 C 7.3353 -0.9839 -0.6540 0
M  V30 23 C 7.9685 -0.0011 0.1234 0
M  V30 24 C 9.4047 0.2962 -0.0788 0
M  V30 25 C 9.8703 1.5790 -0.4691 0
M  V30 26 C 11.2648 1.8052 -0.5958 0
M  V30 27 C 11.7338 3.0698 -0.9751 0
M  V30 28 C 10.8209 4.0898 -1.2384 0
M  V30 29 N 9.4877 3.8557 -1.1355 0
M  V30 30 C 8.9955 2.6438 -0.7665 0
M  V30 31 C 12.1691 0.7626 -0.3512 0
M  V30 32 C 11.7026 -0.5007 0.0095 0
M  V30 33 C 10.3338 -0.7337 0.1431 0
M  V30 34 C 7.2389 0.6634 1.1227 0
M  V30 35 C 5.8880 0.3654 1.3254 0
M  V30 36 S 0.0292 -0.6097 0.4800 0
M  V30 37 C -6.0226 -2.1163 0.5184 0
M  V30 38 C -7.3987 -1.9259 0.3598 0
M  V30 39 C -9.1876 0.8626 -1.8669 0
M  V30 40 N -9.7741 1.5738 -2.8655 0
M  V30 41 C -11.1151 1.7807 -2.9099 0
M  V30 42 H -13.0094 1.4097 -1.9732 0
M  V30 43 H -9.8332 -1.5774 2.0223 0
M  V30 44 H -12.2661 -1.2477 1.9009 0
M  V30 45 H -13.2648 0.0786 0.0858 0
M  V30 46 H -7.4975 1.4724 0.6287 0
M  V30 47 H -5.0734 1.1355 0.9003 0
M  V30 48 H -1.1275 -3.3339 2.4613 0
M  V30 49 H 1.4599 -3.2325 2.4187 0
M  V30 50 H 5.5074 -2.0380 -1.0621 0
M  V30 51 H 7.8864 -1.5136 -1.4214 0
M  V30 52 H 12.7951 3.2658 -1.0723 0
M  V30 53 H 11.1730 5.0691 -1.5341 0
M  V30 54 H 7.9227 2.5204 -0.7223 0
M  V30 55 H 13.2366 0.9228 -0.4465 0
M  V30 56 H 12.4061 -1.3028 0.1922 0
M  V30 57 H 9.9961 -1.7200 0.4387 0
M  V30 58 H 7.7176 1.4099 1.7447 0
M  V30 59 H 5.3367 0.8895 2.0969 0
M  V30 60 H -5.6173 -3.1208 0.4927 0
M  V30 61 H -8.0407 -2.7858 0.2127 0
M  V30 62 H -8.1169 0.7200 -1.9025 0
M  V30 63 H -11.5435 2.3537 -3.7213 0
M  V30 END ATOM
M  V30 BEGIN BOND
M  V30 1 2 1 2
M  V30 2 1 2 3
M  V30 3 1 3 4
M  V30 4 2 4 5
M  V30 5 1 5 6
M  V30 6 2 6 7
M  V30 7 1 4 8
M  V30 8 2 8 9
M  V30 9 1 9 10
M  V30 10 2 10 11
M  V30 11 1 11 12
M  V30 12 3 12 13
M  V30 13 1 13 14
M  V30 14 2 14 15
M  V30 15 1 15 16
M  V30 16 2 16 17
M  V30 17 1 17 18
M  V30 18 3 18 19
M  V30 19 1 19 20
M  V30 20 2 20 21
M  V30 21 1 21 22
M  V30 22 2 22 23
M  V30 23 1 23 24
M  V30 24 1 24 25
M  V30 25 1 25 26
M  V30 26 2 26 27
M  V30 27 1 27 28
M  V30 28 2 28 29
M  V30 29 1 29 30
M  V30 30 1 26 31
M  V30 31 2 31 32
M  V30 32 1 32 33
M  V30 33 1 23 34
M  V30 34 2 34 35
M  V30 35 1 17 36
M  V30 36 1 11 37
M  V30 37 2 37 38
M  V30 38 2 3 39
M  V30 39 1 39 40
M  V30 40 2 40 41
M  V30 41 1 41 1
M  V30 42 1 7 2
M  V30 43 1 38 8
M  V30 44 1 36 14
M  V30 45 1 35 20
M  V30 46 2 33 24
M  V30 47 2 30 25
M  V30 48 1 1 42
M  V30 49 1 5 43
M  V30 50 1 6 44
M  V30 51 1 7 45
M  V30 52 1 9 46
M  V30 53 1 10 47
M  V30 54 1 15 48
M  V30 55 1 16 49
M  V30 56 1 21 50
M  V30 57 1 22 51
M  V30 58 1 27 52
M  V30 59 1 28 53
M  V30 60 1 30 54
M  V30 61 1 31 55
M  V30 62 1 32 56
M  V30 63 1 33 57
M  V30 64 1 34 58
M  V30 65 1 35 59
M  V30 66 1 37 60
M  V30 67 1 38 61
M  V30 68 1 39 62
M  V30 69 1 41 63
M  V30 END BOND
M  V30 END CTAB
M  END

$$$$
