
     RDKit          3D

  0  0  0  0  0  0  0  0  0  0999 V3000
M  V30 BEGIN CTAB
M  V30 COUNTS 63 69 0 0 0
M  V30 BEGIN ATOM
M  V30 1 C 11.9319 -0.2162 -3.3135 0
M  V30 2 C 11.4151 -0.1971 -2.0113 0
M  V30 3 C 10.0123 -0.2502 -1.8085 0
M  V30 4 C 9.4981 -0.2357 -0.4854 0
M  V30 5 C 10.3882 -0.1366 0.5967 0
M  V30 6 C 11.7658 -0.0791 0.3842 0
M  V30 7 C 12.2799 -0.1158 -0.9111 0
M  V30 8 C 8.0501 -0.3371 -0.1939 0
M  V30 9 C 7.3316 -1.4895 -0.5523 0
M  V30 10 C 5.9679 -1.5892 -0.2603 0
M  V30 11 C 5.3132 -0.5428 0.4013 0
M  V30 12 C 3.9085 -0.6431 0.6972 0
M  V30 13 C 2.7314 -0.7246 0.9435 0
M  V30 14 C 1.3289 -0.8183 1.2349 0
M  V30 15 C 0.7760 -1.4409 2.3460 0
M  V30 16 C -0.6219 -1.3700 2.3712 0
M  V30 17 C -1.1485 -0.6929 1.2795 0
M  V30 18 C -2.5439 -0.4564 1.0390 0
M  V30 19 C -3.7149 -0.2550 0.8363 0
M  V30 20 C -5.1123 -0.0116 0.5938 0
M  V30 21 C -5.7496 -0.6095 -0.5007 0
M  V30 22 C -7.1062 -0.3693 -0.7391 0
M  V30 23 C -7.8394 0.4642 0.1206 0
M  V30 24 C -9.2693 0.7382 -0.1490 0
M  V30 25 C -10.2973 0.3977 0.7686 0
M  V30 26 C -11.6409 0.7377 0.4670 0
M  V30 27 C -12.6616 0.4111 1.3697 0
M  V30 28 C -12.3453 -0.2591 2.5503 0
M  V30 29 N -11.0586 -0.5994 2.8180 0
M  V30 30 C -10.0417 -0.2961 1.9690 0
M  V30 31 C -11.9460 1.3899 -0.7356 0
M  V30 32 C -10.9333 1.6999 -1.6421 0
M  V30 33 C -9.6073 1.3763 -1.3538 0
M  V30 34 C -7.1924 1.0716 1.2092 0
M  V30 35 C -5.8360 0.8304 1.4472 0
M  V30 36 S 0.1020 -0.1782 0.2806 0
M  V30 37 C 6.0287 0.6019 0.7744 0
M  V30 38 C 7.3924 0.7027 0.4824 0
M  V30 39 C 9.1783 -0.2878 -2.9446 0
M  V30 40 N 9.7163 -0.3010 -4.1926 0
M  V30 41 C 11.0580 -0.2728 -4.3981 0
M  V30 42 H 13.0003 -0.1820 -3.4909 0
M  V30 43 H 10.0132 -0.1207 1.6131 0
M  V30 44 H 12.4388 -0.0111 1.2292 0
M  V30 45 H 13.3533 -0.0728 -1.0536 0
M  V30 46 H 7.8286 -2.3093 -1.0565 0
M  V30 47 H 5.4252 -2.4815 -0.5483 0
M  V30 48 H 1.3609 -1.9291 3.1148 0
M  V30 49 H -1.2252 -1.7976 3.1616 0
M  V30 50 H -5.1977 -1.2587 -1.1698 0
M  V30 51 H -7.5872 -0.8367 -1.5897 0
M  V30 52 H -13.6939 0.6666 1.1617 0
M  V30 53 H -13.1264 -0.5176 3.2526 0
M  V30 54 H -9.0431 -0.6130 2.2346 0
M  V30 55 H -12.9689 1.6531 -0.9777 0
M  V30 56 H -11.1762 2.1993 -2.5712 0
M  V30 57 H -8.8359 1.6411 -2.0672 0
M  V30 58 H -7.7385 1.7335 1.8703 0
M  V30 59 H -5.3512 1.3031 2.2930 0
M  V30 60 H 5.5327 1.4154 1.2901 0
M  V30 61 H 7.9343 1.5936 0.7757 0
M  V30 62 H 8.1014 -0.2931 -2.8528 0
M  V30 63 H 11.4471 -0.2857 -5.4074 0
M  V30 END ATOM
M  V30 BEGIN BOND
M  V30 1 2 1 2
M  V30 2 1 2 3
M  V30 3 1 3 4
M  V30 4 2 4 5
M  V30 5 1 5 6
M  V30 6 2 6 7
M  V30 7 1 4 8
M  V30 8 2 8 9
M  V30 9 1 9 10
M  V30 10 2 10 11
M  V30 11 1 11 12
M  V30 12 3 12 13
M  V30 13 1 13 14
M  V30 14 2 14 15
M  V30 15 1 15 16
M  V30 16 2 16 17
M  V30 17 1 17 18
M  V30 18 3 18 19
M  V30 19 1 19 20
M  V30 20 2 20 21
M  V30 21 1 21 22
M  V30 22 2 22 23
M  V30 23 1 23 24
M  V30 24 1 24 25
M  V30 25 1 25 26
M  V30 26 2 26 27
M  V30 27 1 27 28
M  V30 28 2 28 29
M  V30 29 1 29 30
M  V30 30 1 26 31
M  V30 31 2 31 32
M  V30 32 1 32 33
M  V30 33 1 23 34
M  V30 34 2 34 35
M  V30 35 1 17 36
M  V30 36 1 11 37
M  V30 37 2 37 38
M  V30 38 2 3 39
M  V30 39 1 39 40
M  V30 40 2 40 41
M  V30 41 1 41 1
M  V30 42 1 7 2
M  V30 43 1 38 8
M  V30 44 1 36 14
M  V30 45 1 35 20
M  V30 46 2 33 24
M  V30 47 2 30 25
M  V30 48 1 1 42
M  V30 49 1 5 43
M  V30 50 1 6 44
M  V30 51 1 7 45
M  V30 52 1 9 46
M  V30 53 1 10 47
M  V30 54 1 15 48
M  V30 55 1 16 49
M  V30 56 1 21 50
M  V30 57 1 22 51
M  V30 58 1 27 52
M  V30 59 1 28 53
M  V30 60 1 30 54
M  V30 61 1 31 55
M  V30 62 1 32 56
M  V30 63 1 33 57
M  V30 64 1 34 58
M  V30 65 1 35 59
M  V30 66 1 37 60
M  V30 67 1 38 61
M  V30 68 1 39 62
M  V30 69 1 41 63
M  V30 END BOND
M  V30 END CTAB
M  END

$$$$
