
     RDKit          3D

  0  0  0  0  0  0  0  0  0  0999 V3000
M  V30 BEGIN CTAB
M  V30 COUNTS 63 69 0 0 0
M  V30 BEGIN ATOM
M  V30 1 C -12.7240 0.8433 -0.0451 0
M  V30 2 C -11.7464 -0.1557 -0.1429 0
M  V30 3 C -10.3739 0.2012 -0.1715 0
M  V30 4 C -9.3907 -0.8173 -0.2765 0
M  V30 5 C -9.7957 -2.1617 -0.3171 0
M  V30 6 C -11.1485 -2.5005 -0.2821 0
M  V30 7 C -12.1211 -1.5050 -0.2024 0
M  V30 8 C -7.9431 -0.5191 -0.3637 0
M  V30 9 C -7.0630 -1.0003 0.6187 0
M  V30 10 C -5.6931 -0.7350 0.5288 0
M  V30 11 C -5.1903 0.0055 -0.5483 0
M  V30 12 C -3.7812 0.2830 -0.6378 0
M  V30 13 C -2.6012 0.5177 -0.7123 0
M  V30 14 C -1.1964 0.7996 -0.8006 0
M  V30 15 C -0.6395 1.9620 -1.3167 0
M  V30 16 C 0.7595 1.9630 -1.2711 0
M  V30 17 C 1.2833 0.8014 -0.7199 0
M  V30 18 C 2.6797 0.5215 -0.5397 0
M  V30 19 C 3.8524 0.2880 -0.3879 0
M  V30 20 C 5.2527 0.0108 -0.2060 0
M  V30 21 C 6.2137 0.9114 -0.6820 0
M  V30 22 C 7.5744 0.6434 -0.5045 0
M  V30 23 C 7.9852 -0.5238 0.1597 0
M  V30 24 C 9.4255 -0.8211 0.3299 0
M  V30 25 C 10.2926 0.0137 1.0823 0
M  V30 26 C 11.6721 -0.3062 1.1618 0
M  V30 27 C 12.5362 0.5149 1.8980 0
M  V30 28 C 12.0258 1.6319 2.5575 0
M  V30 29 N 10.7000 1.9162 2.4923 0
M  V30 30 C 9.8320 1.1457 1.7850 0
M  V30 31 C 12.1657 -1.4464 0.5130 0
M  V30 32 C 11.3035 -2.2736 -0.2053 0
M  V30 33 C 9.9457 -1.9663 -0.2954 0
M  V30 34 C 7.0182 -1.4301 0.6229 0
M  V30 35 C 5.6577 -1.1612 0.4449 0
M  V30 36 S 0.0287 -0.2304 -0.2858 0
M  V30 37 C -6.0620 0.4750 -1.5387 0
M  V30 38 C -7.4318 0.2097 -1.4501 0
M  V30 39 C -10.0409 1.5671 -0.0655 0
M  V30 40 N -11.0173 2.5074 0.0321 0
M  V30 41 C -12.3345 2.1791 0.0379 0
M  V30 42 H -13.7782 0.5931 -0.0274 0
M  V30 43 H -9.0589 -2.9523 -0.3940 0
M  V30 44 H -11.4445 -3.5408 -0.3228 0
M  V30 45 H -13.1664 -1.7899 -0.1796 0
M  V30 46 H -7.4395 -1.5735 1.4572 0
M  V30 47 H -5.0269 -1.1064 1.2983 0
M  V30 48 H -1.2224 2.7838 -1.7119 0
M  V30 49 H 1.3658 2.7856 -1.6276 0
M  V30 50 H 5.9115 1.8183 -1.1921 0
M  V30 51 H 8.3081 1.3433 -0.8855 0
M  V30 52 H 13.5944 0.2921 1.9673 0
M  V30 53 H 12.6845 2.2708 3.1305 0
M  V30 54 H 8.7862 1.4184 1.7900 0
M  V30 55 H 13.2174 -1.7019 0.5678 0
M  V30 56 H 11.6903 -3.1552 -0.7001 0
M  V30 57 H 9.2979 -2.6165 -0.8712 0
M  V30 58 H 7.3186 -2.3402 1.1277 0
M  V30 59 H 4.9224 -1.8665 0.8135 0
M  V30 60 H -5.6828 1.0438 -2.3793 0
M  V30 61 H -8.0946 0.5707 -2.2271 0
M  V30 62 H -9.0115 1.8960 -0.0454 0
M  V30 63 H -13.0817 2.9576 0.1160 0
M  V30 END ATOM
M  V30 BEGIN BOND
M  V30 1 2 1 2
M  V30 2 1 2 3
M  V30 3 1 3 4
M  V30 4 2 4 5
M  V30 5 1 5 6
M  V30 6 2 6 7
M  V30 7 1 4 8
M  V30 8 2 8 9
M  V30 9 1 9 10
M  V30 10 2 10 11
M  V30 11 1 11 12
M  V30 12 3 12 13
M  V30 13 1 13 14
M  V30 14 2 14 15
M  V30 15 1 15 16
M  V30 16 2 16 17
M  V30 17 1 17 18
M  V30 18 3 18 19
M  V30 19 1 19 20
M  V30 20 2 20 21
M  V30 21 1 21 22
M  V30 22 2 22 23
M  V30 23 1 23 24
M  V30 24 1 24 25
M  V30 25 1 25 26
M  V30 26 2 26 27
M  V30 27 1 27 28
M  V30 28 2 28 29
M  V30 29 1 29 30
M  V30 30 1 26 31
M  V30 31 2 31 32
M  V30 32 1 32 33
M  V30 33 1 23 34
M  V30 34 2 34 35
M  V30 35 1 17 36
M  V30 36 1 11 37
M  V30 37 2 37 38
M  V30 38 2 3 39
M  V30 39 1 39 40
M  V30 40 2 40 41
M  V30 41 1 41 1
M  V30 42 1 7 2
M  V30 43 1 38 8
M  V30 44 1 36 14
M  V30 45 1 35 20
M  V30 46 2 33 24
M  V30 47 2 30 25
M  V30 48 1 1 42
M  V30 49 1 5 43
M  V30 50 1 6 44
M  V30 51 1 7 45
M  V30 52 1 9 46
M  V30 53 1 10 47
M  V30 54 1 15 48
M  V30 55 1 16 49
M  V30 56 1 21 50
M  V30 57 1 22 51
M  V30 58 1 27 52
M  V30 59 1 28 53
M  V30 60 1 30 54
M  V30 61 1 31 55
M  V30 62 1 32 56
M  V30 63 1 33 57
M  V30 64 1 34 58
M  V30 65 1 35 59
M  V30 66 1 37 60
M  V30 67 1 38 61
M  V30 68 1 39 62
M  V30 69 1 41 63
M  V30 END BOND
M  V30 END CTAB
M  END

$$$$
