
     RDKit          3D

  0  0  0  0  0  0  0  0  0  0999 V3000
M  V30 BEGIN CTAB
M  V30 COUNTS 63 69 0 0 0
M  V30 BEGIN ATOM
M  V30 1 C 12.6415 1.7864 0.6021 0
M  V30 2 C 11.7283 0.7250 0.6545 0
M  V30 3 C 10.3563 0.9610 0.3826 0
M  V30 4 C 9.4376 -0.1193 0.4440 0
M  V30 5 C 9.9112 -1.4079 0.7413 0
M  V30 6 C 11.2640 -1.6286 1.0006 0
M  V30 7 C 12.1689 -0.5688 0.9650 0
M  V30 8 C 7.9842 0.0585 0.2231 0
M  V30 9 C 7.2278 0.8682 1.0863 0
M  V30 10 C 5.8518 1.0167 0.8882 0
M  V30 11 C 5.2183 0.3495 -0.1675 0
M  V30 12 C 3.8018 0.5019 -0.3704 0
M  V30 13 C 2.6154 0.6296 -0.5404 0
M  V30 14 C 1.2024 0.7820 -0.7431 0
M  V30 15 C 0.5990 1.7895 -1.4837 0
M  V30 16 C -0.7967 1.6864 -1.5087 0
M  V30 17 C -1.2716 0.5993 -0.7874 0
M  V30 18 C -2.6532 0.2403 -0.6351 0
M  V30 19 C -3.8135 -0.0604 -0.5080 0
M  V30 20 C -5.1991 -0.4184 -0.3572 0
M  V30 21 C -6.0022 0.2587 0.5689 0
M  V30 22 C -7.3489 -0.0875 0.7143 0
M  V30 23 C -7.9069 -1.1077 -0.0734 0
M  V30 24 C -9.3276 -1.4903 0.0924 0
M  V30 25 C -10.3946 -0.5891 -0.1612 0
M  V30 26 C -11.7302 -1.0089 0.0667 0
M  V30 27 C -12.7894 -0.1243 -0.1756 0
M  V30 28 C -12.5181 1.1570 -0.6530 0
M  V30 29 N -11.2373 1.5404 -0.8887 0
M  V30 30 C -10.1840 0.7119 -0.6620 0
M  V30 31 C -11.9882 -2.3087 0.5236 0
M  V30 32 C -10.9360 -3.1952 0.7482 0
M  V30 33 C -9.6178 -2.7920 0.5335 0
M  V30 34 C -7.0940 -1.7930 -0.9903 0
M  V30 35 C -5.7470 -1.4464 -1.1346 0
M  V30 36 S 0.0225 -0.2388 -0.1168 0
M  V30 37 C 5.9657 -0.4698 -1.0227 0
M  V30 38 C 7.3420 -0.6187 -0.8257 0
M  V30 39 C 9.9646 2.2692 0.0320 0
M  V30 40 N 10.8802 3.2726 -0.0125 0
M  V30 41 C 12.1919 3.0628 0.2678 0
M  V30 42 H 13.6929 1.6294 0.8120 0
M  V30 43 H 9.2247 -2.2449 0.7894 0
M  V30 44 H 11.6116 -2.6263 1.2361 0
M  V30 45 H 13.2149 -0.7617 1.1726 0
M  V30 46 H 7.7043 1.3814 1.9126 0
M  V30 47 H 5.2821 1.6482 1.5593 0
M  V30 48 H 1.1468 2.5738 -1.9900 0
M  V30 49 H -1.4353 2.3831 -2.0362 0
M  V30 50 H -5.5869 1.0515 1.1796 0
M  V30 51 H -7.9573 0.4375 1.4407 0
M  V30 52 H -13.8168 -0.4225 -0.0027 0
M  V30 53 H -13.3292 1.8466 -0.8453 0
M  V30 54 H -9.1914 1.0743 -0.8888 0
M  V30 55 H -13.0044 -2.6414 0.6995 0
M  V30 56 H -11.1424 -4.1992 1.0962 0
M  V30 57 H -8.8162 -3.4943 0.7289 0
M  V30 58 H -7.5057 -2.5898 -1.5976 0
M  V30 59 H -5.1335 -1.9795 -1.8510 0
M  V30 60 H 5.4847 -0.9938 -1.8400 0
M  V30 61 H 7.9086 -1.2559 -1.4937 0
M  V30 62 H 8.9399 2.5016 -0.2209 0
M  V30 63 H 12.8895 3.8884 0.2224 0
M  V30 END ATOM
M  V30 BEGIN BOND
M  V30 1 2 1 2
M  V30 2 1 2 3
M  V30 3 1 3 4
M  V30 4 2 4 5
M  V30 5 1 5 6
M  V30 6 2 6 7
M  V30 7 1 4 8
M  V30 8 2 8 9
M  V30 9 1 9 10
M  V30 10 2 10 11
M  V30 11 1 11 12
M  V30 12 3 12 13
M  V30 13 1 13 14
M  V30 14 2 14 15
M  V30 15 1 15 16
M  V30 16 2 16 17
M  V30 17 1 17 18
M  V30 18 3 18 19
M  V30 19 1 19 20
M  V30 20 2 20 21
M  V30 21 1 21 22
M  V30 22 2 22 23
M  V30 23 1 23 24
M  V30 24 1 24 25
M  V30 25 1 25 26
M  V30 26 2 26 27
M  V30 27 1 27 28
M  V30 28 2 28 29
M  V30 29 1 29 30
M  V30 30 1 26 31
M  V30 31 2 31 32
M  V30 32 1 32 33
M  V30 33 1 23 34
M  V30 34 2 34 35
M  V30 35 1 17 36
M  V30 36 1 11 37
M  V30 37 2 37 38
M  V30 38 2 3 39
M  V30 39 1 39 40
M  V30 40 2 40 41
M  V30 41 1 41 1
M  V30 42 1 7 2
M  V30 43 1 38 8
M  V30 44 1 36 14
M  V30 45 1 35 20
M  V30 46 2 33 24
M  V30 47 2 30 25
M  V30 48 1 1 42
M  V30 49 1 5 43
M  V30 50 1 6 44
M  V30 51 1 7 45
M  V30 52 1 9 46
M  V30 53 1 10 47
M  V30 54 1 15 48
M  V30 55 1 16 49
M  V30 56 1 21 50
M  V30 57 1 22 51
M  V30 58 1 27 52
M  V30 59 1 28 53
M  V30 60 1 30 54
M  V30 61 1 31 55
M  V30 62 1 32 56
M  V30 63 1 33 57
M  V30 64 1 34 58
M  V30 65 1 35 59
M  V30 66 1 37 60
M  V30 67 1 38 61
M  V30 68 1 39 62
M  V30 69 1 41 63
M  V30 END BOND
M  V30 END CTAB
M  END

$$$$
