
     RDKit          3D

  0  0  0  0  0  0  0  0  0  0999 V3000
M  V30 BEGIN CTAB
M  V30 COUNTS 63 69 0 0 0
M  V30 BEGIN ATOM
M  V30 1 C 12.3189 1.2236 2.7063 0
M  V30 2 C 11.2391 0.4011 3.0535 0
M  V30 3 C 9.9998 0.5415 2.3780 0
M  V30 4 C 8.9129 -0.2996 2.7331 0
M  V30 5 C 9.0770 -1.2339 3.7690 0
M  V30 6 C 10.2991 -1.3588 4.4298 0
M  V30 7 C 11.3781 -0.5517 4.0719 0
M  V30 8 C 7.6051 -0.2443 2.0413 0
M  V30 9 C 7.5095 -0.5566 0.6753 0
M  V30 10 C 6.2695 -0.5247 0.0301 0
M  V30 11 C 5.1136 -0.1905 0.7467 0
M  V30 12 C 3.8372 -0.1588 0.0830 0
M  V30 13 C 2.7675 -0.1322 -0.4720 0
M  V30 14 C 1.4932 -0.1007 -1.1320 0
M  V30 15 C 1.2975 -0.1008 -2.5065 0
M  V30 16 C -0.0553 -0.0674 -2.8645 0
M  V30 17 C -0.9047 -0.0414 -1.7665 0
M  V30 18 C -2.3387 -0.0065 -1.8234 0
M  V30 19 C -3.5427 0.0216 -1.8715 0
M  V30 20 C -4.9802 0.0533 -1.9295 0
M  V30 21 C -5.6530 -0.5595 -2.9940 0
M  V30 22 C -7.0498 -0.5320 -3.0495 0
M  V30 23 C -7.7861 0.1011 -2.0355 0
M  V30 24 C -9.2643 0.1460 -2.1076 0
M  V30 25 C -10.0944 -0.4356 -1.1137 0
M  V30 26 C -11.5033 -0.3137 -1.2241 0
M  V30 27 C -12.3304 -0.8803 -0.2453 0
M  V30 28 C -11.7576 -1.5715 0.8211 0
M  V30 29 N -10.4088 -1.7007 0.9049 0
M  V30 30 C -9.5745 -1.1618 -0.0229 0
M  V30 31 C -12.0650 0.3632 -2.3154 0
M  V30 32 C -11.2435 0.9123 -3.2988 0
M  V30 33 C -9.8563 0.8040 -3.1984 0
M  V30 34 C -7.1063 0.7273 -0.9780 0
M  V30 35 C -5.7095 0.6987 -0.9230 0
M  V30 36 S 0.0042 -0.0595 -0.3523 0
M  V30 37 C 5.2019 0.1085 2.1121 0
M  V30 38 C 6.4416 0.0775 2.7579 0
M  V30 39 C 9.8921 1.5410 1.3897 0
M  V30 40 N 10.9607 2.3227 1.0831 0
M  V30 41 C 12.1577 2.1827 1.7079 0
M  V30 42 H 13.2759 1.1294 3.2058 0
M  V30 43 H 8.2571 -1.8819 4.0554 0
M  V30 44 H 10.4117 -2.0892 5.2206 0
M  V30 45 H 12.3195 -0.6671 4.5962 0
M  V30 46 H 8.3948 -0.8265 0.1124 0
M  V30 47 H 6.2117 -0.7635 -1.0252 0
M  V30 48 H 2.1036 -0.1246 -3.2284 0
M  V30 49 H -0.3992 -0.0630 -3.8908 0
M  V30 50 H -5.0983 -1.0577 -3.7802 0
M  V30 51 H -7.5582 -1.0102 -3.8780 0
M  V30 52 H -13.4088 -0.7941 -0.3072 0
M  V30 53 H -12.3877 -2.0146 1.5807 0
M  V30 54 H -8.5116 -1.3184 0.0943 0
M  V30 55 H -13.1400 0.4608 -2.4116 0
M  V30 56 H -11.6838 1.4294 -4.1416 0
M  V30 57 H -9.2381 1.2508 -3.9680 0
M  V30 58 H -7.6587 1.2377 -0.1984 0
M  V30 59 H -5.1987 1.1813 -0.0983 0
M  V30 60 H 4.3131 0.3641 2.6767 0
M  V30 61 H 6.4963 0.3102 3.8144 0
M  V30 62 H 8.9630 1.7180 0.8665 0
M  V30 63 H 12.9847 2.8242 1.4343 0
M  V30 END ATOM
M  V30 BEGIN BOND
M  V30 1 2 1 2
M  V30 2 1 2 3
M  V30 3 1 3 4
M  V30 4 2 4 5
M  V30 5 1 5 6
M  V30 6 2 6 7
M  V30 7 1 4 8
M  V30 8 2 8 9
M  V30 9 1 9 10
M  V30 10 2 10 11
M  V30 11 1 11 12
M  V30 12 3 12 13
M  V30 13 1 13 14
M  V30 14 2 14 15
M  V30 15 1 15 16
M  V30 16 2 16 17
M  V30 17 1 17 18
M  V30 18 3 18 19
M  V30 19 1 19 20
M  V30 20 2 20 21
M  V30 21 1 21 22
M  V30 22 2 22 23
M  V30 23 1 23 24
M  V30 24 1 24 25
M  V30 25 1 25 26
M  V30 26 2 26 27
M  V30 27 1 27 28
M  V30 28 2 28 29
M  V30 29 1 29 30
M  V30 30 1 26 31
M  V30 31 2 31 32
M  V30 32 1 32 33
M  V30 33 1 23 34
M  V30 34 2 34 35
M  V30 35 1 17 36
M  V30 36 1 11 37
M  V30 37 2 37 38
M  V30 38 2 3 39
M  V30 39 1 39 40
M  V30 40 2 40 41
M  V30 41 1 41 1
M  V30 42 1 7 2
M  V30 43 1 38 8
M  V30 44 1 36 14
M  V30 45 1 35 20
M  V30 46 2 33 24
M  V30 47 2 30 25
M  V30 48 1 1 42
M  V30 49 1 5 43
M  V30 50 1 6 44
M  V30 51 1 7 45
M  V30 52 1 9 46
M  V30 53 1 10 47
M  V30 54 1 15 48
M  V30 55 1 16 49
M  V30 56 1 21 50
M  V30 57 1 22 51
M  V30 58 1 27 52
M  V30 59 1 28 53
M  V30 60 1 30 54
M  V30 61 1 31 55
M  V30 62 1 32 56
M  V30 63 1 33 57
M  V30 64 1 34 58
M  V30 65 1 35 59
M  V30 66 1 37 60
M  V30 67 1 38 61
M  V30 68 1 39 62
M  V30 69 1 41 63
M  V30 END BOND
M  V30 END CTAB
M  END

$$$$
