
     RDKit          3D

  0  0  0  0  0  0  0  0  0  0999 V3000
M  V30 BEGIN CTAB
M  V30 COUNTS 63 69 0 0 0
M  V30 BEGIN ATOM
M  V30 1 C 12.0982 -0.0851 -1.5713 0
M  V30 2 C 11.2764 1.0445 -1.6797 0
M  V30 3 C 9.8872 0.9337 -1.4164 0
M  V30 4 C 9.0634 2.0847 -1.5235 0
M  V30 5 C 9.6355 3.3048 -1.9197 0
M  V30 6 C 11.0023 3.3999 -2.1819 0
M  V30 7 C 11.8221 2.2793 -2.0569 0
M  V30 8 C 7.6153 2.0573 -1.2167 0
M  V30 9 C 6.6775 2.3796 -2.2106 0
M  V30 10 C 5.3101 2.3728 -1.9181 0
M  V30 11 C 4.8694 2.0528 -0.6278 0
M  V30 12 C 3.4620 2.0444 -0.3283 0
M  V30 13 C 2.2829 2.0371 -0.0781 0
M  V30 14 C 0.8785 2.0280 0.2190 0
M  V30 15 C 0.1243 3.1361 0.5806 0
M  V30 16 C -1.2220 2.8281 0.8092 0
M  V30 17 C -1.5076 1.4821 0.6235 0
M  V30 18 C -2.7982 0.8745 0.7851 0
M  V30 19 C -3.8819 0.3642 0.9208 0
M  V30 20 C -5.1757 -0.2449 1.0829 0
M  V30 21 C -6.1161 -0.1811 0.0472 0
M  V30 22 C -7.3739 -0.7706 0.2052 0
M  V30 23 C -7.6982 -1.4387 1.3974 0
M  V30 24 C -9.0388 -2.0416 1.5780 0
M  V30 25 C -9.5228 -3.0883 0.7501 0
M  V30 26 C -10.8378 -3.5818 0.9481 0
M  V30 27 C -11.3264 -4.6101 0.1315 0
M  V30 28 C -10.5066 -5.1479 -0.8593 0
M  V30 29 N -9.2416 -4.6837 -1.0247 0
M  V30 30 C -8.7343 -3.6851 -0.2548 0
M  V30 31 C -11.6413 -3.0474 1.9647 0
M  V30 32 C -11.1501 -2.0359 2.7885 0
M  V30 33 C -9.8609 -1.5379 2.5995 0
M  V30 34 C -6.7564 -1.4887 2.4374 0
M  V30 35 C -5.4990 -0.8982 2.2788 0
M  V30 36 S -0.1067 0.6663 0.1783 0
M  V30 37 C 5.8016 1.7440 0.3706 0
M  V30 38 C 7.1691 1.7513 0.0794 0
M  V30 39 C 9.3741 -0.3363 -1.0825 0
M  V30 40 N 10.2019 -1.4102 -0.9913 0
M  V30 41 C 11.5365 -1.3114 -1.2195 0
M  V30 42 H 13.1629 -0.0215 -1.7621 0
M  V30 43 H 9.0212 4.1928 -2.0095 0
M  V30 44 H 11.4292 4.3494 -2.4784 0
M  V30 45 H 12.8816 2.3760 -2.2624 0
M  V30 46 H 7.0053 2.6285 -3.2125 0
M  V30 47 H 4.5975 2.6174 -2.6967 0
M  V30 48 H 0.5307 4.1345 0.6767 0
M  V30 49 H -1.9597 3.5647 1.0998 0
M  V30 50 H -5.8784 0.3271 -0.8797 0
M  V30 51 H -8.0965 -0.7048 -0.5991 0
M  V30 52 H -12.3299 -4.9975 0.2614 0
M  V30 53 H -10.8739 -5.9434 -1.4937 0
M  V30 54 H -7.7131 -3.3763 -0.4271 0
M  V30 55 H -12.6467 -3.4177 2.1271 0
M  V30 56 H -11.7742 -1.6309 3.5747 0
M  V30 57 H -9.5069 -0.7414 3.2431 0
M  V30 58 H -6.9946 -1.9898 3.3678 0
M  V30 59 H -4.7803 -0.9494 3.0880 0
M  V30 60 H 5.4719 1.5005 1.3735 0
M  V30 61 H 7.8807 1.5198 0.8626 0
M  V30 62 H 8.3187 -0.4888 -0.9064 0
M  V30 63 H 12.1623 -2.1898 -1.1356 0
M  V30 END ATOM
M  V30 BEGIN BOND
M  V30 1 2 1 2
M  V30 2 1 2 3
M  V30 3 1 3 4
M  V30 4 2 4 5
M  V30 5 1 5 6
M  V30 6 2 6 7
M  V30 7 1 4 8
M  V30 8 2 8 9
M  V30 9 1 9 10
M  V30 10 2 10 11
M  V30 11 1 11 12
M  V30 12 3 12 13
M  V30 13 1 13 14
M  V30 14 2 14 15
M  V30 15 1 15 16
M  V30 16 2 16 17
M  V30 17 1 17 18
M  V30 18 3 18 19
M  V30 19 1 19 20
M  V30 20 2 20 21
M  V30 21 1 21 22
M  V30 22 2 22 23
M  V30 23 1 23 24
M  V30 24 1 24 25
M  V30 25 1 25 26
M  V30 26 2 26 27
M  V30 27 1 27 28
M  V30 28 2 28 29
M  V30 29 1 29 30
M  V30 30 1 26 31
M  V30 31 2 31 32
M  V30 32 1 32 33
M  V30 33 1 23 34
M  V30 34 2 34 35
M  V30 35 1 17 36
M  V30 36 1 11 37
M  V30 37 2 37 38
M  V30 38 2 3 39
M  V30 39 1 39 40
M  V30 40 2 40 41
M  V30 41 1 41 1
M  V30 42 1 7 2
M  V30 43 1 38 8
M  V30 44 1 36 14
M  V30 45 1 35 20
M  V30 46 2 33 24
M  V30 47 2 30 25
M  V30 48 1 1 42
M  V30 49 1 5 43
M  V30 50 1 6 44
M  V30 51 1 7 45
M  V30 52 1 9 46
M  V30 53 1 10 47
M  V30 54 1 15 48
M  V30 55 1 16 49
M  V30 56 1 21 50
M  V30 57 1 22 51
M  V30 58 1 27 52
M  V30 59 1 28 53
M  V30 60 1 30 54
M  V30 61 1 31 55
M  V30 62 1 32 56
M  V30 63 1 33 57
M  V30 64 1 34 58
M  V30 65 1 35 59
M  V30 66 1 37 60
M  V30 67 1 38 61
M  V30 68 1 39 62
M  V30 69 1 41 63
M  V30 END BOND
M  V30 END CTAB
M  END

$$$$
