
     RDKit          3D

  0  0  0  0  0  0  0  0  0  0999 V3000
M  V30 BEGIN CTAB
M  V30 COUNTS 63 69 0 0 0
M  V30 BEGIN ATOM
M  V30 1 C -12.5369 -0.7927 0.2478 0
M  V30 2 C -11.6726 0.0611 -0.4500 0
M  V30 3 C -10.2785 0.0175 -0.1925 0
M  V30 4 C -9.4111 0.8901 -0.9003 0
M  V30 5 C -9.9476 1.7578 -1.8659 0
M  V30 6 C -11.3199 1.7873 -2.1146 0
M  V30 7 C -12.1811 0.9497 -1.4074 0
M  V30 8 C -7.9527 0.9378 -0.6495 0
M  V30 9 C -7.4599 1.3267 0.6070 0
M  V30 10 C -6.0820 1.3913 0.8345 0
M  V30 11 C -5.1850 1.0776 -0.1942 0
M  V30 12 C -3.7668 1.1447 0.0402 0
M  V30 13 C -2.5789 1.2008 0.2367 0
M  V30 14 C -1.1641 1.2675 0.4706 0
M  V30 15 C -0.5236 2.2006 1.2748 0
M  V30 16 C 0.8643 2.0231 1.3165 0
M  V30 17 C 1.2958 0.9528 0.5445 0
M  V30 18 C 2.6596 0.5306 0.3941 0
M  V30 19 C 3.8047 0.1760 0.2678 0
M  V30 20 C 5.1717 -0.2473 0.1170 0
M  V30 21 C 6.1298 0.6407 -0.3879 0
M  V30 22 C 7.4579 0.2295 -0.5351 0
M  V30 23 C 7.8414 -1.0711 -0.1688 0
M  V30 24 C 9.2423 -1.5168 -0.3448 0
M  V30 25 C 10.3276 -0.9091 0.3391 0
M  V30 26 C 11.6495 -1.3554 0.0838 0
M  V30 27 C 12.7274 -0.7575 0.7500 0
M  V30 28 C 12.4860 0.2620 1.6694 0
M  V30 29 N 11.2148 0.6659 1.9222 0
M  V30 30 C 10.1446 0.1128 1.2930 0
M  V30 31 C 11.8740 -2.3983 -0.8253 0
M  V30 32 C 10.8007 -3.0053 -1.4757 0
M  V30 33 C 9.4966 -2.5711 -1.2375 0
M  V30 34 C 6.8744 -1.9616 0.3241 0
M  V30 35 C 5.5462 -1.5497 0.4706 0
M  V30 36 S -0.0269 0.2212 -0.1917 0
M  V30 37 C -5.6713 0.7026 -1.4529 0
M  V30 38 C -7.0493 0.6374 -1.6813 0
M  V30 39 C -9.8061 -0.9214 0.7472 0
M  V30 40 N -10.6750 -1.7362 1.4016 0
M  V30 41 C -12.0134 -1.6878 1.1793 0
M  V30 42 H -13.6058 -0.7719 0.0707 0
M  V30 43 H -9.3000 2.4287 -2.4178 0
M  V30 44 H -11.7185 2.4678 -2.8560 0
M  V30 45 H -13.2440 0.9908 -1.6140 0
M  V30 46 H -8.1434 1.5812 1.4078 0
M  V30 47 H -5.7164 1.6885 1.8101 0
M  V30 48 H -1.0396 2.9844 1.8143 0
M  V30 49 H 1.5280 2.6559 1.8914 0
M  V30 50 H 5.8496 1.6484 -0.6702 0
M  V30 51 H 8.1876 0.9225 -0.9360 0
M  V30 52 H 13.7456 -1.0792 0.5657 0
M  V30 53 H 13.3113 0.7284 2.1905 0
M  V30 54 H 9.1583 0.4685 1.5551 0
M  V30 55 H 12.8792 -2.7490 -1.0272 0
M  V30 56 H 10.9805 -3.8134 -2.1730 0
M  V30 57 H 8.6801 -3.0487 -1.7660 0
M  V30 58 H 7.1511 -2.9717 0.6008 0
M  V30 59 H 4.8121 -2.2459 0.8580 0
M  V30 60 H -4.9860 0.4620 -2.2568 0
M  V30 61 H -7.4127 0.3465 -2.6594 0
M  V30 62 H -8.7512 -1.0250 0.9584 0
M  V30 63 H -12.6722 -2.3527 1.7216 0
M  V30 END ATOM
M  V30 BEGIN BOND
M  V30 1 2 1 2
M  V30 2 1 2 3
M  V30 3 1 3 4
M  V30 4 2 4 5
M  V30 5 1 5 6
M  V30 6 2 6 7
M  V30 7 1 4 8
M  V30 8 2 8 9
M  V30 9 1 9 10
M  V30 10 2 10 11
M  V30 11 1 11 12
M  V30 12 3 12 13
M  V30 13 1 13 14
M  V30 14 2 14 15
M  V30 15 1 15 16
M  V30 16 2 16 17
M  V30 17 1 17 18
M  V30 18 3 18 19
M  V30 19 1 19 20
M  V30 20 2 20 21
M  V30 21 1 21 22
M  V30 22 2 22 23
M  V30 23 1 23 24
M  V30 24 1 24 25
M  V30 25 1 25 26
M  V30 26 2 26 27
M  V30 27 1 27 28
M  V30 28 2 28 29
M  V30 29 1 29 30
M  V30 30 1 26 31
M  V30 31 2 31 32
M  V30 32 1 32 33
M  V30 33 1 23 34
M  V30 34 2 34 35
M  V30 35 1 17 36
M  V30 36 1 11 37
M  V30 37 2 37 38
M  V30 38 2 3 39
M  V30 39 1 39 40
M  V30 40 2 40 41
M  V30 41 1 41 1
M  V30 42 1 7 2
M  V30 43 1 38 8
M  V30 44 1 36 14
M  V30 45 1 35 20
M  V30 46 2 33 24
M  V30 47 2 30 25
M  V30 48 1 1 42
M  V30 49 1 5 43
M  V30 50 1 6 44
M  V30 51 1 7 45
M  V30 52 1 9 46
M  V30 53 1 10 47
M  V30 54 1 15 48
M  V30 55 1 16 49
M  V30 56 1 21 50
M  V30 57 1 22 51
M  V30 58 1 27 52
M  V30 59 1 28 53
M  V30 60 1 30 54
M  V30 61 1 31 55
M  V30 62 1 32 56
M  V30 63 1 33 57
M  V30 64 1 34 58
M  V30 65 1 35 59
M  V30 66 1 37 60
M  V30 67 1 38 61
M  V30 68 1 39 62
M  V30 69 1 41 63
M  V30 END BOND
M  V30 END CTAB
M  END

$$$$
