
     RDKit          3D

  0  0  0  0  0  0  0  0  0  0999 V3000
M  V30 BEGIN CTAB
M  V30 COUNTS 63 69 0 0 0
M  V30 BEGIN ATOM
M  V30 1 C 12.6897 -0.1275 -1.2155 0
M  V30 2 C 11.5165 -0.1812 -1.9796 0
M  V30 3 C 10.2535 -0.1580 -1.3347 0
M  V30 4 C 9.0702 -0.2065 -2.1172 0
M  V30 5 C 9.1739 -0.3102 -3.5142 0
M  V30 6 C 10.4219 -0.3379 -4.1365 0
M  V30 7 C 11.5886 -0.2669 -3.3767 0
M  V30 8 C 7.7177 -0.1315 -1.5195 0
M  V30 9 C 7.3131 1.0170 -0.8195 0
M  V30 10 C 6.0276 1.0947 -0.2759 0
M  V30 11 C 5.1320 0.0301 -0.4363 0
M  V30 12 C 3.8074 0.1132 0.1195 0
M  V30 13 C 2.6978 0.1856 0.5846 0
M  V30 14 C 1.3763 0.2743 1.1380 0
M  V30 15 C 1.0748 0.4180 2.4858 0
M  V30 16 C -0.3015 0.4823 2.7328 0
M  V30 17 C -1.0631 0.3883 1.5757 0
M  V30 18 C -2.4968 0.4233 1.5172 0
M  V30 19 C -3.7008 0.4519 1.4671 0
M  V30 20 C -5.1382 0.4842 1.4061 0
M  V30 21 C -5.8956 0.2228 2.5547 0
M  V30 22 C -7.2923 0.2480 2.4944 0
M  V30 23 C -7.9432 0.5263 1.2820 0
M  V30 24 C -9.4218 0.5680 1.2242 0
M  V30 25 C -10.1773 -0.3142 0.4085 0
M  V30 26 C -11.5895 -0.1877 0.3676 0
M  V30 27 C -12.3433 -1.0521 -0.4374 0
M  V30 28 C -11.6954 -2.0377 -1.1804 0
M  V30 29 N -10.3449 -2.1628 -1.1175 0
M  V30 30 C -9.5803 -1.3411 -0.3511 0
M  V30 31 C -12.2279 0.7934 1.1385 0
M  V30 32 C -11.4801 1.6422 1.9533 0
M  V30 33 C -10.0903 1.5302 1.9989 0
M  V30 34 C -7.1793 0.8036 0.1366 0
M  V30 35 C -5.7828 0.7773 0.1978 0
M  V30 36 S -0.0477 0.2263 0.2456 0
M  V30 37 C 5.5259 -1.1120 -1.1448 0
M  V30 38 C 6.8118 -1.1909 -1.6883 0
M  V30 39 C 10.2280 -0.1137 0.0741 0
M  V30 40 N 11.3875 -0.0662 0.7817 0
M  V30 41 C 12.6016 -0.0657 0.1743 0
M  V30 42 H 13.6648 -0.1386 -1.6879 0
M  V30 43 H 8.2813 -0.3518 -4.1271 0
M  V30 44 H 10.4846 -0.4094 -5.2147 0
M  V30 45 H 12.5477 -0.2863 -3.8806 0
M  V30 46 H 7.9929 1.8517 -0.6984 0
M  V30 47 H 5.7308 1.9855 0.2649 0
M  V30 48 H 1.8225 0.4755 3.2663 0
M  V30 49 H -0.7239 0.5941 3.7231 0
M  V30 50 H -5.4067 -0.0007 3.4955 0
M  V30 51 H -7.8669 0.0424 3.3894 0
M  V30 52 H -13.4228 -0.9698 -0.4872 0
M  V30 53 H -12.2688 -2.7112 -1.8033 0
M  V30 54 H -8.5124 -1.5071 -0.3330 0
M  V30 55 H -13.3063 0.8987 1.1165 0
M  V30 56 H -11.9798 2.3949 2.5494 0
M  V30 57 H -9.5295 2.2096 2.6297 0
M  V30 58 H -7.6663 1.0401 -0.8017 0
M  V30 59 H -5.2062 0.9868 -0.6952 0
M  V30 60 H 4.8391 -1.9395 -1.2786 0
M  V30 61 H 7.1043 -2.0790 -2.2354 0
M  V30 62 H 9.2961 -0.1301 0.6212 0
M  V30 63 H 13.5018 -0.0259 0.7731 0
M  V30 END ATOM
M  V30 BEGIN BOND
M  V30 1 2 1 2
M  V30 2 1 2 3
M  V30 3 1 3 4
M  V30 4 2 4 5
M  V30 5 1 5 6
M  V30 6 2 6 7
M  V30 7 1 4 8
M  V30 8 2 8 9
M  V30 9 1 9 10
M  V30 10 2 10 11
M  V30 11 1 11 12
M  V30 12 3 12 13
M  V30 13 1 13 14
M  V30 14 2 14 15
M  V30 15 1 15 16
M  V30 16 2 16 17
M  V30 17 1 17 18
M  V30 18 3 18 19
M  V30 19 1 19 20
M  V30 20 2 20 21
M  V30 21 1 21 22
M  V30 22 2 22 23
M  V30 23 1 23 24
M  V30 24 1 24 25
M  V30 25 1 25 26
M  V30 26 2 26 27
M  V30 27 1 27 28
M  V30 28 2 28 29
M  V30 29 1 29 30
M  V30 30 1 26 31
M  V30 31 2 31 32
M  V30 32 1 32 33
M  V30 33 1 23 34
M  V30 34 2 34 35
M  V30 35 1 17 36
M  V30 36 1 11 37
M  V30 37 2 37 38
M  V30 38 2 3 39
M  V30 39 1 39 40
M  V30 40 2 40 41
M  V30 41 1 41 1
M  V30 42 1 7 2
M  V30 43 1 38 8
M  V30 44 1 36 14
M  V30 45 1 35 20
M  V30 46 2 33 24
M  V30 47 2 30 25
M  V30 48 1 1 42
M  V30 49 1 5 43
M  V30 50 1 6 44
M  V30 51 1 7 45
M  V30 52 1 9 46
M  V30 53 1 10 47
M  V30 54 1 15 48
M  V30 55 1 16 49
M  V30 56 1 21 50
M  V30 57 1 22 51
M  V30 58 1 27 52
M  V30 59 1 28 53
M  V30 60 1 30 54
M  V30 61 1 31 55
M  V30 62 1 32 56
M  V30 63 1 33 57
M  V30 64 1 34 58
M  V30 65 1 35 59
M  V30 66 1 37 60
M  V30 67 1 38 61
M  V30 68 1 39 62
M  V30 69 1 41 63
M  V30 END BOND
M  V30 END CTAB
M  END

$$$$
