
     RDKit          3D

  0  0  0  0  0  0  0  0  0  0999 V3000
M  V30 BEGIN CTAB
M  V30 COUNTS 63 69 0 0 0
M  V30 BEGIN ATOM
M  V30 1 C 12.4609 -0.5377 2.1344 0
M  V30 2 C 11.6350 -0.6722 1.0106 0
M  V30 3 C 10.2465 -0.4039 1.1198 0
M  V30 4 C 9.4185 -0.5374 -0.0253 0
M  V30 5 C 9.9857 -0.9642 -1.2374 0
M  V30 6 C 11.3518 -1.2308 -1.3309 0
M  V30 7 C 12.1757 -1.0801 -0.2166 0
M  V30 8 C 7.9711 -0.2266 -0.0009 0
M  V30 9 C 7.0300 -1.2255 -0.2968 0
M  V30 10 C 5.6635 -0.9292 -0.2953 0
M  V30 11 C 5.2268 0.3699 -0.0073 0
M  V30 12 C 3.8203 0.6741 -0.0056 0
M  V30 13 C 2.6421 0.9287 -0.0040 0
M  V30 14 C 1.2390 1.2316 -0.0019 0
M  V30 15 C 0.6901 2.5069 0.0100 0
M  V30 16 C -0.7097 2.4978 0.0095 0
M  V30 17 C -1.2420 1.2156 -0.0026 0
M  V30 18 C -2.6411 0.8946 -0.0057 0
M  V30 19 C -3.8160 0.6250 -0.0081 0
M  V30 20 C -5.2186 0.3032 -0.0110 0
M  V30 21 C -6.1718 1.3215 -0.1358 0
M  V30 22 C -7.5347 1.0095 -0.1380 0
M  V30 23 C -7.9556 -0.3258 -0.0254 0
M  V30 24 C -9.3984 -0.6573 -0.0043 0
M  V30 25 C -10.2594 -0.3854 -1.0996 0
M  V30 26 C -11.6417 -0.6840 -0.9899 0
M  V30 27 C -12.5001 -0.4137 -2.0638 0
M  V30 28 C -11.9814 0.1337 -3.2362 0
M  V30 29 N -10.6531 0.3946 -3.3380 0
M  V30 30 C -9.7905 0.1498 -2.3167 0
M  V30 31 C -12.1439 -1.2569 0.1866 0
M  V30 32 C -11.2876 -1.5420 1.2491 0
M  V30 33 C -9.9274 -1.2473 1.1555 0
M  V30 34 C -6.9962 -1.3415 0.1130 0
M  V30 35 C -5.6335 -1.0284 0.1154 0
M  V30 36 S 0.0058 0.0889 -0.0129 0
M  V30 37 C 6.1622 1.3731 0.2753 0
M  V30 38 C 7.5288 1.0779 0.2737 0
M  V30 39 C 9.7385 -0.0381 2.3830 0
M  V30 40 N 10.5704 0.0781 3.4515 0
M  V30 41 C 11.9042 -0.1546 3.3535 0
M  V30 42 H 13.5251 -0.7323 2.0718 0
M  V30 43 H 9.3681 -1.0746 -2.1208 0
M  V30 44 H 11.7749 -1.5509 -2.2744 0
M  V30 45 H 13.2346 -1.2896 -0.3118 0
M  V30 46 H 7.3549 -2.2340 -0.5216 0
M  V30 47 H 4.9484 -1.7117 -0.5194 0
M  V30 48 H 1.2792 3.4149 0.0188 0
M  V30 49 H -1.3105 3.3981 0.0179 0
M  V30 50 H -5.8619 2.3556 -0.2280 0
M  V30 51 H -8.2625 1.8070 -0.2251 0
M  V30 52 H -13.5602 -0.6285 -1.9991 0
M  V30 53 H -12.6356 0.3440 -4.0717 0
M  V30 54 H -8.7424 0.3636 -2.4712 0
M  V30 55 H -13.1977 -1.4911 0.2814 0
M  V30 56 H -11.6811 -1.9889 2.1531 0
M  V30 57 H -9.2843 -1.4645 2.0001 0
M  V30 58 H -7.3042 -2.3753 0.2121 0
M  V30 59 H -4.9043 -1.8233 0.2169 0
M  V30 60 H 5.8354 2.3828 0.4936 0
M  V30 61 H 8.2428 1.8648 0.4843 0
M  V30 62 H 8.6840 0.1436 2.5349 0
M  V30 63 H 12.5332 -0.0501 4.2275 0
M  V30 END ATOM
M  V30 BEGIN BOND
M  V30 1 2 1 2
M  V30 2 1 2 3
M  V30 3 1 3 4
M  V30 4 2 4 5
M  V30 5 1 5 6
M  V30 6 2 6 7
M  V30 7 1 4 8
M  V30 8 2 8 9
M  V30 9 1 9 10
M  V30 10 2 10 11
M  V30 11 1 11 12
M  V30 12 3 12 13
M  V30 13 1 13 14
M  V30 14 2 14 15
M  V30 15 1 15 16
M  V30 16 2 16 17
M  V30 17 1 17 18
M  V30 18 3 18 19
M  V30 19 1 19 20
M  V30 20 2 20 21
M  V30 21 1 21 22
M  V30 22 2 22 23
M  V30 23 1 23 24
M  V30 24 1 24 25
M  V30 25 1 25 26
M  V30 26 2 26 27
M  V30 27 1 27 28
M  V30 28 2 28 29
M  V30 29 1 29 30
M  V30 30 1 26 31
M  V30 31 2 31 32
M  V30 32 1 32 33
M  V30 33 1 23 34
M  V30 34 2 34 35
M  V30 35 1 17 36
M  V30 36 1 11 37
M  V30 37 2 37 38
M  V30 38 2 3 39
M  V30 39 1 39 40
M  V30 40 2 40 41
M  V30 41 1 41 1
M  V30 42 1 7 2
M  V30 43 1 38 8
M  V30 44 1 36 14
M  V30 45 1 35 20
M  V30 46 2 33 24
M  V30 47 2 30 25
M  V30 48 1 1 42
M  V30 49 1 5 43
M  V30 50 1 6 44
M  V30 51 1 7 45
M  V30 52 1 9 46
M  V30 53 1 10 47
M  V30 54 1 15 48
M  V30 55 1 16 49
M  V30 56 1 21 50
M  V30 57 1 22 51
M  V30 58 1 27 52
M  V30 59 1 28 53
M  V30 60 1 30 54
M  V30 61 1 31 55
M  V30 62 1 32 56
M  V30 63 1 33 57
M  V30 64 1 34 58
M  V30 65 1 35 59
M  V30 66 1 37 60
M  V30 67 1 38 61
M  V30 68 1 39 62
M  V30 69 1 41 63
M  V30 END BOND
M  V30 END CTAB
M  END

$$$$
