
     RDKit          3D

  0  0  0  0  0  0  0  0  0  0999 V3000
M  V30 BEGIN CTAB
M  V30 COUNTS 63 69 0 0 0
M  V30 BEGIN ATOM
M  V30 1 C 12.6606 0.0897 -1.2083 0
M  V30 2 C 11.5352 0.6120 -1.8598 0
M  V30 3 C 10.2473 0.4400 -1.2900 0
M  V30 4 C 9.1138 0.9780 -1.9538 0
M  V30 5 C 9.2861 1.6424 -3.1793 0
M  V30 6 C 10.5573 1.7981 -3.7341 0
M  V30 7 C 11.6785 1.2932 -3.0767 0
M  V30 8 C 7.7457 0.8805 -1.3956 0
M  V30 9 C 6.7464 0.1857 -2.0959 0
M  V30 10 C 5.4501 0.1033 -1.5774 0
M  V30 11 C 5.1398 0.7214 -0.3589 0
M  V30 12 C 3.8062 0.6277 0.1742 0
M  V30 13 C 2.6859 0.5403 0.6107 0
M  V30 14 C 1.3477 0.4257 1.1180 0
M  V30 15 C 0.9627 0.6207 2.4376 0
M  V30 16 C -0.4095 0.4261 2.6401 0
M  V30 17 C -1.0841 0.0789 1.4765 0
M  V30 18 C -2.4937 -0.1719 1.3708 0
M  V30 19 C -3.6768 -0.3803 1.2741 0
M  V30 20 C -5.0884 -0.6296 1.1458 0
M  V30 21 C -5.8198 -0.0043 0.1286 0
M  V30 22 C -7.1887 -0.2551 -0.0067 0
M  V30 23 C -7.8409 -1.1264 0.8817 0
M  V30 24 C -9.2828 -1.4233 0.7152 0
M  V30 25 C -10.2843 -0.4198 0.7962 0
M  V30 26 C -11.6395 -0.7677 0.5624 0
M  V30 27 C -12.6335 0.2173 0.6313 0
M  V30 28 C -12.2801 1.5283 0.9474 0
M  V30 29 N -10.9830 1.8452 1.1935 0
M  V30 30 C -9.9908 0.9184 1.1305 0
M  V30 31 C -11.9832 -2.0956 0.2737 0
M  V30 32 C -10.9978 -3.0799 0.2238 0
M  V30 33 C -9.6599 -2.7487 0.4416 0
M  V30 34 C -7.1010 -1.7585 1.8940 0
M  V30 35 C -5.7315 -1.5073 2.0279 0
M  V30 36 S 0.0039 0.0138 0.1958 0
M  V30 37 C 6.1298 1.4274 0.3375 0
M  V30 38 C 7.4263 1.5114 -0.1816 0
M  V30 39 C 10.1448 -0.2904 -0.0881 0
M  V30 40 N 11.2588 -0.7851 0.5129 0
M  V30 41 C 12.4989 -0.6069 -0.0112 0
M  V30 42 H 13.6540 0.2131 -1.6240 0
M  V30 43 H 8.4313 2.0552 -3.7015 0
M  V30 44 H 10.6740 2.3179 -4.6767 0
M  V30 45 H 12.6572 1.4285 -3.5230 0
M  V30 46 H 6.9744 -0.2989 -3.0375 0
M  V30 47 H 4.6906 -0.4430 -2.1248 0
M  V30 48 H 1.6474 0.8919 3.2298 0
M  V30 49 H -0.8909 0.5344 3.6031 0
M  V30 50 H -5.3305 0.6706 -0.5636 0
M  V30 51 H -7.7402 0.2246 -0.8068 0
M  V30 52 H -13.6733 -0.0257 0.4473 0
M  V30 53 H -13.0410 2.2953 1.0069 0
M  V30 54 H -8.9825 1.2339 1.3578 0
M  V30 55 H -13.0156 -2.3742 0.0954 0
M  V30 56 H -11.2717 -4.1050 0.0081 0
M  V30 57 H -8.9095 -3.5283 0.3786 0
M  V30 58 H -7.5859 -2.4425 2.5799 0
M  V30 59 H -5.1742 -1.9988 2.8158 0
M  V30 60 H 5.8998 1.9108 1.2806 0
M  V30 61 H 8.1825 2.0659 0.3624 0
M  V30 62 H 9.1862 -0.4841 0.3736 0
M  V30 63 H 13.3610 -1.0156 0.4985 0
M  V30 END ATOM
M  V30 BEGIN BOND
M  V30 1 2 1 2
M  V30 2 1 2 3
M  V30 3 1 3 4
M  V30 4 2 4 5
M  V30 5 1 5 6
M  V30 6 2 6 7
M  V30 7 1 4 8
M  V30 8 2 8 9
M  V30 9 1 9 10
M  V30 10 2 10 11
M  V30 11 1 11 12
M  V30 12 3 12 13
M  V30 13 1 13 14
M  V30 14 2 14 15
M  V30 15 1 15 16
M  V30 16 2 16 17
M  V30 17 1 17 18
M  V30 18 3 18 19
M  V30 19 1 19 20
M  V30 20 2 20 21
M  V30 21 1 21 22
M  V30 22 2 22 23
M  V30 23 1 23 24
M  V30 24 1 24 25
M  V30 25 1 25 26
M  V30 26 2 26 27
M  V30 27 1 27 28
M  V30 28 2 28 29
M  V30 29 1 29 30
M  V30 30 1 26 31
M  V30 31 2 31 32
M  V30 32 1 32 33
M  V30 33 1 23 34
M  V30 34 2 34 35
M  V30 35 1 17 36
M  V30 36 1 11 37
M  V30 37 2 37 38
M  V30 38 2 3 39
M  V30 39 1 39 40
M  V30 40 2 40 41
M  V30 41 1 41 1
M  V30 42 1 7 2
M  V30 43 1 38 8
M  V30 44 1 36 14
M  V30 45 1 35 20
M  V30 46 2 33 24
M  V30 47 2 30 25
M  V30 48 1 1 42
M  V30 49 1 5 43
M  V30 50 1 6 44
M  V30 51 1 7 45
M  V30 52 1 9 46
M  V30 53 1 10 47
M  V30 54 1 15 48
M  V30 55 1 16 49
M  V30 56 1 21 50
M  V30 57 1 22 51
M  V30 58 1 27 52
M  V30 59 1 28 53
M  V30 60 1 30 54
M  V30 61 1 31 55
M  V30 62 1 32 56
M  V30 63 1 33 57
M  V30 64 1 34 58
M  V30 65 1 35 59
M  V30 66 1 37 60
M  V30 67 1 38 61
M  V30 68 1 39 62
M  V30 69 1 41 63
M  V30 END BOND
M  V30 END CTAB
M  END

$$$$
