
     RDKit          3D

  0  0  0  0  0  0  0  0  0  0999 V3000
M  V30 BEGIN CTAB
M  V30 COUNTS 63 69 0 0 0
M  V30 BEGIN ATOM
M  V30 1 C -12.2748 3.0231 -1.3294 0
M  V30 2 C -11.0072 3.6101 -1.2205 0
M  V30 3 C -9.8630 2.7902 -1.0451 0
M  V30 4 C -8.5838 3.3944 -0.9250 0
M  V30 5 C -8.4729 4.7917 -1.0188 0
M  V30 6 C -9.6048 5.5868 -1.1997 0
M  V30 7 C -10.8671 5.0028 -1.2927 0
M  V30 8 C -7.3526 2.6097 -0.6750 0
M  V30 9 C -7.2226 1.8467 0.4972 0
M  V30 10 C -6.0489 1.1285 0.7455 0
M  V30 11 C -4.9900 1.1760 -0.1694 0
M  V30 12 C -3.7773 0.4481 0.0966 0
M  V30 13 C -2.7615 -0.1575 0.3292 0
M  V30 14 C -1.5510 -0.8729 0.6181 0
M  V30 15 C -1.4241 -1.8963 1.5479 0
M  V30 16 C -0.1135 -2.3763 1.6542 0
M  V30 17 C 0.7724 -1.7244 0.8057 0
M  V30 18 C 2.1873 -1.9588 0.7390 0
M  V30 19 C 3.3779 -2.1408 0.6921 0
M  V30 20 C 4.8024 -2.3395 0.6454 0
M  V30 21 C 5.5975 -1.9523 1.7315 0
M  V30 22 C 6.9854 -2.1153 1.6775 0
M  V30 23 C 7.5906 -2.6593 0.5328 0
M  V30 24 C 9.0596 -2.8325 0.4742 0
M  V30 25 C 9.9579 -1.7344 0.5319 0
M  V30 26 C 11.3555 -1.9757 0.5109 0
M  V30 27 C 12.2498 -0.8984 0.5705 0
M  V30 28 C 11.7537 0.4027 0.6386 0
M  V30 29 N 10.4138 0.6230 0.6386 0
M  V30 30 C 9.5160 -0.3960 0.5834 0
M  V30 31 C 11.8389 -3.2885 0.4207 0
M  V30 32 C 10.9497 -4.3602 0.3456 0
M  V30 33 C 9.5727 -4.1359 0.3697 0
M  V30 34 C 6.7871 -3.0677 -0.5436 0
M  V30 35 C 5.3988 -2.9050 -0.4884 0
M  V30 36 S -0.0513 -0.5505 -0.0716 0
M  V30 37 C -5.1085 1.9460 -1.3332 0
M  V30 38 C -6.2829 2.6636 -1.5833 0
M  V30 39 C -10.0456 1.3923 -1.0242 0
M  V30 40 N -11.2907 0.8593 -1.1374 0
M  V30 41 C -12.3952 1.6354 -1.2804 0
M  V30 42 H -13.1633 3.6304 -1.4557 0
M  V30 43 H -7.5045 5.2700 -0.9314 0
M  V30 44 H -9.5039 6.6630 -1.2615 0
M  V30 45 H -11.7334 5.6394 -1.4284 0
M  V30 46 H -8.0291 1.8117 1.2194 0
M  V30 47 H -5.9649 0.5420 1.6526 0
M  V30 48 H -2.2468 -2.2743 2.1420 0
M  V30 49 H 0.1778 -3.1619 2.3399 0
M  V30 50 H 5.1452 -1.5192 2.6158 0
M  V30 51 H 7.5893 -1.8141 2.5249 0
M  V30 52 H 13.3211 -1.0607 0.5604 0
M  V30 53 H 12.4360 1.2412 0.6836 0
M  V30 54 H 8.4639 -0.1487 0.5663 0
M  V30 55 H 12.9048 -3.4838 0.4007 0
M  V30 56 H 11.3294 -5.3716 0.2713 0
M  V30 57 H 8.9015 -4.9855 0.3212 0
M  V30 58 H 7.2364 -3.5012 -1.4280 0
M  V30 59 H 4.7928 -3.2119 -1.3320 0
M  V30 60 H -4.2926 1.9956 -2.0445 0
M  V30 61 H -6.3607 3.2578 -2.4858 0
M  V30 62 H -9.2076 0.7160 -0.9329 0
M  V30 63 H -13.3694 1.1733 -1.3655 0
M  V30 END ATOM
M  V30 BEGIN BOND
M  V30 1 2 1 2
M  V30 2 1 2 3
M  V30 3 1 3 4
M  V30 4 2 4 5
M  V30 5 1 5 6
M  V30 6 2 6 7
M  V30 7 1 4 8
M  V30 8 2 8 9
M  V30 9 1 9 10
M  V30 10 2 10 11
M  V30 11 1 11 12
M  V30 12 3 12 13
M  V30 13 1 13 14
M  V30 14 2 14 15
M  V30 15 1 15 16
M  V30 16 2 16 17
M  V30 17 1 17 18
M  V30 18 3 18 19
M  V30 19 1 19 20
M  V30 20 2 20 21
M  V30 21 1 21 22
M  V30 22 2 22 23
M  V30 23 1 23 24
M  V30 24 1 24 25
M  V30 25 1 25 26
M  V30 26 2 26 27
M  V30 27 1 27 28
M  V30 28 2 28 29
M  V30 29 1 29 30
M  V30 30 1 26 31
M  V30 31 2 31 32
M  V30 32 1 32 33
M  V30 33 1 23 34
M  V30 34 2 34 35
M  V30 35 1 17 36
M  V30 36 1 11 37
M  V30 37 2 37 38
M  V30 38 2 3 39
M  V30 39 1 39 40
M  V30 40 2 40 41
M  V30 41 1 41 1
M  V30 42 1 7 2
M  V30 43 1 38 8
M  V30 44 1 36 14
M  V30 45 1 35 20
M  V30 46 2 33 24
M  V30 47 2 30 25
M  V30 48 1 1 42
M  V30 49 1 5 43
M  V30 50 1 6 44
M  V30 51 1 7 45
M  V30 52 1 9 46
M  V30 53 1 10 47
M  V30 54 1 15 48
M  V30 55 1 16 49
M  V30 56 1 21 50
M  V30 57 1 22 51
M  V30 58 1 27 52
M  V30 59 1 28 53
M  V30 60 1 30 54
M  V30 61 1 31 55
M  V30 62 1 32 56
M  V30 63 1 33 57
M  V30 64 1 34 58
M  V30 65 1 35 59
M  V30 66 1 37 60
M  V30 67 1 38 61
M  V30 68 1 39 62
M  V30 69 1 41 63
M  V30 END BOND
M  V30 END CTAB
M  END

$$$$
