
     RDKit          3D

  0  0  0  0  0  0  0  0  0  0999 V3000
M  V30 BEGIN CTAB
M  V30 COUNTS 63 69 0 0 0
M  V30 BEGIN ATOM
M  V30 1 C 12.1113 2.2759 0.3318 0
M  V30 2 C 11.5079 1.0115 0.3181 0
M  V30 3 C 10.0938 0.9053 0.2903 0
M  V30 4 C 9.4912 -0.3799 0.2824 0
M  V30 5 C 10.3088 -1.5220 0.2695 0
M  V30 6 C 11.6986 -1.4046 0.2909 0
M  V30 7 C 12.2979 -0.1463 0.3219 0
M  V30 8 C 8.0230 -0.5702 0.3049 0
M  V30 9 C 7.3820 -1.2381 -0.7507 0
M  V30 10 C 5.9985 -1.4382 -0.7214 0
M  V30 11 C 5.2455 -0.9809 0.3673 0
M  V30 12 C 3.8216 -1.1872 0.3969 0
M  V30 13 C 2.6289 -1.3598 0.4218 0
M  V30 14 C 1.2085 -1.5652 0.4515 0
M  V30 15 C 0.5747 -2.7827 0.6606 0
M  V30 16 C -0.8213 -2.6816 0.6373 0
M  V30 17 C -1.2658 -1.3860 0.4100 0
M  V30 18 C -2.6401 -0.9783 0.3334 0
M  V30 19 C -3.7940 -0.6359 0.2689 0
M  V30 20 C -5.1716 -0.2271 0.1919 0
M  V30 21 C -5.9849 -0.2824 1.3307 0
M  V30 22 C -7.3234 0.1148 1.2564 0
M  V30 23 C -7.8625 0.5620 0.0397 0
M  V30 24 C -9.2740 1.0036 -0.0311 0
M  V30 25 C -10.2297 0.3714 -0.8688 0
M  V30 26 C -11.5528 0.8796 -0.9233 0
M  V30 27 C -12.5013 0.2654 -1.7516 0
M  V30 28 C -12.1363 -0.8501 -2.5035 0
M  V30 29 N -10.8731 -1.3413 -2.4265 0
M  V30 30 C -9.9250 -0.7703 -1.6378 0
M  V30 31 C -11.9109 1.9873 -0.1427 0
M  V30 32 C -10.9723 2.5884 0.6947 0
M  V30 33 C -9.6664 2.1013 0.7524 0
M  V30 34 C -7.0391 0.6286 -1.0962 0
M  V30 35 C -5.7009 0.2310 -1.0211 0
M  V30 36 S 0.0553 -0.3607 0.2371 0
M  V30 37 C 5.8820 -0.3261 1.4291 0
M  V30 38 C 7.2654 -0.1258 1.4009 0
M  V30 39 C 9.3395 2.0955 0.2437 0
M  V30 40 N 9.9608 3.3042 0.2543 0
M  V30 41 C 11.3127 3.4180 0.3032 0
M  V30 42 H 13.1896 2.3798 0.3587 0
M  V30 43 H 9.8660 -2.5109 0.2604 0
M  V30 44 H 12.3145 -2.2948 0.2891 0
M  V30 45 H 13.3792 -0.0778 0.3412 0
M  V30 46 H 7.9531 -1.5970 -1.5982 0
M  V30 47 H 5.5166 -1.9498 -1.5460 0
M  V30 48 H 1.1011 -3.7140 0.8249 0
M  V30 49 H -1.4815 -3.5270 0.7816 0
M  V30 50 H -5.5842 -0.6312 2.2750 0
M  V30 51 H -7.9418 0.0677 2.1445 0
M  V30 52 H -13.5160 0.6408 -1.8126 0
M  V30 53 H -12.8621 -1.3328 -3.1443 0
M  V30 54 H -8.9441 -1.2233 -1.6091 0
M  V30 55 H -12.9190 2.3834 -0.1745 0
M  V30 56 H -11.2567 3.4405 1.2987 0
M  V30 57 H -8.9509 2.5943 1.3998 0
M  V30 58 H -7.4341 0.9903 -2.0378 0
M  V30 59 H -5.0789 0.2836 -1.9066 0
M  V30 60 H 5.3098 0.0263 2.2789 0
M  V30 61 H 7.7473 0.3732 2.2327 0
M  V30 62 H 8.2605 2.0765 0.1851 0
M  V30 63 H 11.7691 4.3988 0.3112 0
M  V30 END ATOM
M  V30 BEGIN BOND
M  V30 1 2 1 2
M  V30 2 1 2 3
M  V30 3 1 3 4
M  V30 4 2 4 5
M  V30 5 1 5 6
M  V30 6 2 6 7
M  V30 7 1 4 8
M  V30 8 2 8 9
M  V30 9 1 9 10
M  V30 10 2 10 11
M  V30 11 1 11 12
M  V30 12 3 12 13
M  V30 13 1 13 14
M  V30 14 2 14 15
M  V30 15 1 15 16
M  V30 16 2 16 17
M  V30 17 1 17 18
M  V30 18 3 18 19
M  V30 19 1 19 20
M  V30 20 2 20 21
M  V30 21 1 21 22
M  V30 22 2 22 23
M  V30 23 1 23 24
M  V30 24 1 24 25
M  V30 25 1 25 26
M  V30 26 2 26 27
M  V30 27 1 27 28
M  V30 28 2 28 29
M  V30 29 1 29 30
M  V30 30 1 26 31
M  V30 31 2 31 32
M  V30 32 1 32 33
M  V30 33 1 23 34
M  V30 34 2 34 35
M  V30 35 1 17 36
M  V30 36 1 11 37
M  V30 37 2 37 38
M  V30 38 2 3 39
M  V30 39 1 39 40
M  V30 40 2 40 41
M  V30 41 1 41 1
M  V30 42 1 7 2
M  V30 43 1 38 8
M  V30 44 1 36 14
M  V30 45 1 35 20
M  V30 46 2 33 24
M  V30 47 2 30 25
M  V30 48 1 1 42
M  V30 49 1 5 43
M  V30 50 1 6 44
M  V30 51 1 7 45
M  V30 52 1 9 46
M  V30 53 1 10 47
M  V30 54 1 15 48
M  V30 55 1 16 49
M  V30 56 1 21 50
M  V30 57 1 22 51
M  V30 58 1 27 52
M  V30 59 1 28 53
M  V30 60 1 30 54
M  V30 61 1 31 55
M  V30 62 1 32 56
M  V30 63 1 33 57
M  V30 64 1 34 58
M  V30 65 1 35 59
M  V30 66 1 37 60
M  V30 67 1 38 61
M  V30 68 1 39 62
M  V30 69 1 41 63
M  V30 END BOND
M  V30 END CTAB
M  END

$$$$
