
     RDKit          3D

  0  0  0  0  0  0  0  0  0  0999 V3000
M  V30 BEGIN CTAB
M  V30 COUNTS 63 69 0 0 0
M  V30 BEGIN ATOM
M  V30 1 C 12.7289 0.0878 0.4000 0
M  V30 2 C 11.6710 0.0984 -0.5186 0
M  V30 3 C 10.3402 0.2713 -0.0595 0
M  V30 4 C 9.2745 0.2746 -0.9968 0
M  V30 5 C 9.5626 0.1394 -2.3651 0
M  V30 6 C 10.8762 -0.0211 -2.8054 0
M  V30 7 C 11.9262 -0.0506 -1.8887 0
M  V30 8 C 7.8560 0.3938 -0.5893 0
M  V30 9 C 7.2619 -0.5950 0.2125 0
M  V30 10 C 5.9129 -0.4987 0.5663 0
M  V30 11 C 5.1435 0.5809 0.1139 0
M  V30 12 C 3.7503 0.6702 0.4632 0
M  V30 13 C 2.5817 0.7443 0.7487 0
M  V30 14 C 1.1883 0.8343 1.0802 0
M  V30 15 C 0.6363 1.6998 2.0149 0
M  V30 16 C -0.7557 1.5857 2.1075 0
M  V30 17 C -1.2788 0.6307 1.2452 0
M  V30 18 C -2.6713 0.3168 1.0955 0
M  V30 19 C -3.8406 0.0580 0.9608 0
M  V30 20 C -5.2369 -0.2446 0.7908 0
M  V30 21 C -5.6408 -1.5492 0.4793 0
M  V30 22 C -6.9965 -1.8380 0.2950 0
M  V30 23 C -7.9590 -0.8224 0.4131 0
M  V30 24 C -9.3950 -1.1316 0.2273 0
M  V30 25 C -10.1814 -0.5214 -0.7849 0
M  V30 26 C -11.5633 -0.8291 -0.8740 0
M  V30 27 C -12.3485 -0.2274 -1.8664 0
M  V30 28 C -11.7573 0.6578 -2.7665 0
M  V30 29 N -10.4292 0.9274 -2.6859 0
M  V30 30 C -9.6366 0.3665 -1.7350 0
M  V30 31 C -12.1376 -1.7409 0.0227 0
M  V30 32 C -11.3535 -2.3534 0.9991 0
M  V30 33 C -9.9948 -2.0538 1.1008 0
M  V30 34 C -7.5502 0.4795 0.7459 0
M  V30 35 C -6.1944 0.7681 0.9275 0
M  V30 36 S -0.0326 -0.0723 0.3628 0
M  V30 37 C 5.7289 1.5648 -0.6925 0
M  V30 38 C 7.0782 1.4698 -1.0465 0
M  V30 39 C 10.1340 0.4615 1.3220 0
M  V30 40 N 11.1861 0.4487 2.1824 0
M  V30 41 C 12.4614 0.2615 1.7567 0
M  V30 42 H 13.7526 -0.0473 0.0714 0
M  V30 43 H 8.7616 0.1394 -3.0945 0
M  V30 44 H 11.0809 -0.1295 -3.8627 0
M  V30 45 H 12.9392 -0.1822 -2.2509 0
M  V30 46 H 7.8427 -1.4419 0.5570 0
M  V30 47 H 5.4683 -1.2677 1.1867 0
M  V30 48 H 1.2171 2.3980 2.6050 0
M  V30 49 H -1.3584 2.1868 2.7761 0
M  V30 50 H -4.9082 -2.3409 0.3749 0
M  V30 51 H -7.2954 -2.8493 0.0494 0
M  V30 52 H -13.4072 -0.4429 -1.9487 0
M  V30 53 H -12.3545 1.1264 -3.5374 0
M  V30 54 H -8.5835 0.6100 -1.7400 0
M  V30 55 H -13.1915 -1.9862 -0.0377 0
M  V30 56 H -11.8022 -3.0609 1.6846 0
M  V30 57 H -9.4092 -2.5311 1.8771 0
M  V30 58 H -8.2817 1.2697 0.8623 0
M  V30 59 H -5.8929 1.7795 1.1736 0
M  V30 60 H 5.1411 2.4015 -1.0520 0
M  V30 61 H 7.5178 2.2349 -1.6749 0
M  V30 62 H 9.1462 0.6342 1.7252 0
M  V30 63 H 13.2717 0.2573 2.4734 0
M  V30 END ATOM
M  V30 BEGIN BOND
M  V30 1 2 1 2
M  V30 2 1 2 3
M  V30 3 1 3 4
M  V30 4 2 4 5
M  V30 5 1 5 6
M  V30 6 2 6 7
M  V30 7 1 4 8
M  V30 8 2 8 9
M  V30 9 1 9 10
M  V30 10 2 10 11
M  V30 11 1 11 12
M  V30 12 3 12 13
M  V30 13 1 13 14
M  V30 14 2 14 15
M  V30 15 1 15 16
M  V30 16 2 16 17
M  V30 17 1 17 18
M  V30 18 3 18 19
M  V30 19 1 19 20
M  V30 20 2 20 21
M  V30 21 1 21 22
M  V30 22 2 22 23
M  V30 23 1 23 24
M  V30 24 1 24 25
M  V30 25 1 25 26
M  V30 26 2 26 27
M  V30 27 1 27 28
M  V30 28 2 28 29
M  V30 29 1 29 30
M  V30 30 1 26 31
M  V30 31 2 31 32
M  V30 32 1 32 33
M  V30 33 1 23 34
M  V30 34 2 34 35
M  V30 35 1 17 36
M  V30 36 1 11 37
M  V30 37 2 37 38
M  V30 38 2 3 39
M  V30 39 1 39 40
M  V30 40 2 40 41
M  V30 41 1 41 1
M  V30 42 1 7 2
M  V30 43 1 38 8
M  V30 44 1 36 14
M  V30 45 1 35 20
M  V30 46 2 33 24
M  V30 47 2 30 25
M  V30 48 1 1 42
M  V30 49 1 5 43
M  V30 50 1 6 44
M  V30 51 1 7 45
M  V30 52 1 9 46
M  V30 53 1 10 47
M  V30 54 1 15 48
M  V30 55 1 16 49
M  V30 56 1 21 50
M  V30 57 1 22 51
M  V30 58 1 27 52
M  V30 59 1 28 53
M  V30 60 1 30 54
M  V30 61 1 31 55
M  V30 62 1 32 56
M  V30 63 1 33 57
M  V30 64 1 34 58
M  V30 65 1 35 59
M  V30 66 1 37 60
M  V30 67 1 38 61
M  V30 68 1 39 62
M  V30 69 1 41 63
M  V30 END BOND
M  V30 END CTAB
M  END

$$$$
