
     RDKit          3D

  0  0  0  0  0  0  0  0  0  0999 V3000
M  V30 BEGIN CTAB
M  V30 COUNTS 63 69 0 0 0
M  V30 BEGIN ATOM
M  V30 1 C -12.3261 0.0330 0.8735 0
M  V30 2 C -11.5657 0.1681 -0.2953 0
M  V30 3 C -10.1502 0.2089 -0.2146 0
M  V30 4 C -9.3880 0.3490 -1.4034 0
M  V30 5 C -10.0502 0.4148 -2.6404 0
M  V30 6 C -11.4425 0.3688 -2.7074 0
M  V30 7 C -12.1994 0.2530 -1.5426 0
M  V30 8 C -7.9108 0.4455 -1.3940 0
M  V30 9 C -7.2734 1.5262 -0.7630 0
M  V30 10 C -5.8791 1.6261 -0.7741 0
M  V30 11 C -5.1105 0.6518 -1.4230 0
M  V30 12 C -3.6753 0.7548 -1.4349 0
M  V30 13 C -2.4730 0.8394 -1.4448 0
M  V30 14 C -1.0409 0.9379 -1.4554 0
M  V30 15 C -0.2828 1.5544 -2.4422 0
M  V30 16 C 1.0929 1.4923 -2.1912 0
M  V30 17 C 1.3977 0.8257 -1.0123 0
M  V30 18 C 2.7200 0.6050 -0.4990 0
M  V30 19 C 3.8306 0.4202 -0.0686 0
M  V30 20 C 5.1568 0.2006 0.4450 0
M  V30 21 C 6.2606 0.7835 -0.1902 0
M  V30 22 C 7.5492 0.5720 0.3091 0
M  V30 23 C 7.7460 -0.2332 1.4431 0
M  V30 24 C 9.1061 -0.4340 1.9925 0
M  V30 25 C 10.1423 -1.0632 1.2542 0
M  V30 26 C 11.4352 -1.1761 1.8262 0
M  V30 27 C 12.4656 -1.7909 1.1028 0
M  V30 28 C 12.2034 -2.2986 -0.1685 0
M  V30 29 N 10.9568 -2.2044 -0.6970 0
M  V30 30 C 9.9333 -1.6119 -0.0273 0
M  V30 31 C 11.6769 -0.6823 3.1155 0
M  V30 32 C 10.6479 -0.0867 3.8430 0
M  V30 33 C 9.3739 0.0356 3.2890 0
M  V30 34 C 6.6348 -0.8054 2.0833 0
M  V30 35 C 5.3462 -0.5924 1.5838 0
M  V30 36 S -0.0226 0.3124 -0.2734 0
M  V30 37 C -5.7419 -0.4208 -2.0649 0
M  V30 38 C -7.1363 -0.5212 -2.0549 0
M  V30 39 C -9.5535 0.0805 1.0560 0
M  V30 40 N -10.3243 -0.0518 2.1674 0
M  V30 41 C -11.6803 -0.0723 2.1041 0
M  V30 42 H -13.4085 0.0032 0.8354 0
M  V30 43 H -9.4844 0.5198 -3.5580 0
M  V30 44 H -11.9375 0.4277 -3.6679 0
M  V30 45 H -13.2802 0.2226 -1.6172 0
M  V30 46 H -7.8571 2.2909 -0.2655 0
M  V30 47 H -5.4009 2.4638 -0.2804 0
M  V30 48 H -0.7068 2.0323 -3.3157 0
M  V30 49 H 1.8381 1.9190 -2.8499 0
M  V30 50 H 6.1248 1.4039 -1.0679 0
M  V30 51 H 8.3935 1.0380 -0.1846 0
M  V30 52 H 13.4620 -1.8823 1.5186 0
M  V30 53 H 12.9918 -2.7767 -0.7341 0
M  V30 54 H 8.9609 -1.5874 -0.4984 0
M  V30 55 H 12.6605 -0.7645 3.5635 0
M  V30 56 H 10.8403 0.2876 4.8403 0
M  V30 57 H 8.5941 0.5158 3.8684 0
M  V30 58 H 6.7682 -1.4203 2.9649 0
M  V30 59 H 4.4988 -1.0442 2.0854 0
M  V30 60 H -5.1562 -1.1772 -2.5737 0
M  V30 61 H -7.6124 -1.3546 -2.5565 0
M  V30 62 H -8.4795 0.0705 1.1752 0
M  V30 63 H -12.2587 -0.1787 3.0118 0
M  V30 END ATOM
M  V30 BEGIN BOND
M  V30 1 2 1 2
M  V30 2 1 2 3
M  V30 3 1 3 4
M  V30 4 2 4 5
M  V30 5 1 5 6
M  V30 6 2 6 7
M  V30 7 1 4 8
M  V30 8 2 8 9
M  V30 9 1 9 10
M  V30 10 2 10 11
M  V30 11 1 11 12
M  V30 12 3 12 13
M  V30 13 1 13 14
M  V30 14 2 14 15
M  V30 15 1 15 16
M  V30 16 2 16 17
M  V30 17 1 17 18
M  V30 18 3 18 19
M  V30 19 1 19 20
M  V30 20 2 20 21
M  V30 21 1 21 22
M  V30 22 2 22 23
M  V30 23 1 23 24
M  V30 24 1 24 25
M  V30 25 1 25 26
M  V30 26 2 26 27
M  V30 27 1 27 28
M  V30 28 2 28 29
M  V30 29 1 29 30
M  V30 30 1 26 31
M  V30 31 2 31 32
M  V30 32 1 32 33
M  V30 33 1 23 34
M  V30 34 2 34 35
M  V30 35 1 17 36
M  V30 36 1 11 37
M  V30 37 2 37 38
M  V30 38 2 3 39
M  V30 39 1 39 40
M  V30 40 2 40 41
M  V30 41 1 41 1
M  V30 42 1 7 2
M  V30 43 1 38 8
M  V30 44 1 36 14
M  V30 45 1 35 20
M  V30 46 2 33 24
M  V30 47 2 30 25
M  V30 48 1 1 42
M  V30 49 1 5 43
M  V30 50 1 6 44
M  V30 51 1 7 45
M  V30 52 1 9 46
M  V30 53 1 10 47
M  V30 54 1 15 48
M  V30 55 1 16 49
M  V30 56 1 21 50
M  V30 57 1 22 51
M  V30 58 1 27 52
M  V30 59 1 28 53
M  V30 60 1 30 54
M  V30 61 1 31 55
M  V30 62 1 32 56
M  V30 63 1 33 57
M  V30 64 1 34 58
M  V30 65 1 35 59
M  V30 66 1 37 60
M  V30 67 1 38 61
M  V30 68 1 39 62
M  V30 69 1 41 63
M  V30 END BOND
M  V30 END CTAB
M  END

$$$$
