
     RDKit          3D

  0  0  0  0  0  0  0  0  0  0999 V3000
M  V30 BEGIN CTAB
M  V30 COUNTS 63 69 0 0 0
M  V30 BEGIN ATOM
M  V30 1 C -12.5795 1.6316 -0.5198 0
M  V30 2 C -11.6983 0.9019 0.2890 0
M  V30 3 C -10.3175 0.8590 -0.0325 0
M  V30 4 C -9.4332 0.1126 0.7895 0
M  V30 5 C -9.9385 -0.5429 1.9244 0
M  V30 6 C -11.2977 -0.4884 2.2336 0
M  V30 7 C -12.1765 0.2237 1.4186 0
M  V30 8 C -7.9895 -0.0204 0.4892 0
M  V30 9 C -7.5643 -0.6518 -0.6912 0
M  V30 10 C -6.2001 -0.7951 -0.9619 0
M  V30 11 C -5.2496 -0.3180 -0.0508 0
M  V30 12 C -3.8456 -0.4663 -0.3294 0
M  V30 13 C -2.6696 -0.5904 -0.5627 0
M  V30 14 C -1.2690 -0.7380 -0.8404 0
M  V30 15 C -0.7306 -1.3141 -1.9832 0
M  V30 16 C 0.6692 -1.3217 -1.9822 0
M  V30 17 C 1.2120 -0.7515 -0.8385 0
M  V30 18 C 2.6138 -0.6190 -0.5588 0
M  V30 19 C 3.7908 -0.5076 -0.3238 0
M  V30 20 C 5.1960 -0.3745 -0.0435 0
M  V30 21 C 5.9806 0.5098 -0.7941 0
M  V30 22 C 7.3458 0.6398 -0.5217 0
M  V30 23 C 7.9400 -0.1216 0.4980 0
M  V30 24 C 9.3807 0.0305 0.8040 0
M  V30 25 C 10.3969 -0.2764 -0.1383 0
M  V30 26 C 11.7554 -0.0588 0.2066 0
M  V30 27 C 12.7650 -0.3535 -0.7193 0
M  V30 28 C 12.4221 -0.8722 -1.9668 0
M  V30 29 N 11.1199 -1.0971 -2.2778 0
M  V30 30 C 10.1133 -0.8202 -1.4078 0
M  V30 31 C 12.0856 0.4404 1.4740 0
M  V30 32 C 11.0828 0.7176 2.4020 0
M  V30 33 C 9.7428 0.5135 2.0723 0
M  V30 34 C 7.1463 -0.9967 1.2565 0
M  V30 35 C 5.7810 -1.1257 0.9836 0
M  V30 36 S -0.0265 -0.2362 0.1749 0
M  V30 37 C -5.6685 0.2999 1.1341 0
M  V30 38 C -7.0326 0.4441 1.4055 0
M  V30 39 C -9.8738 1.5910 -1.1527 0
M  V30 40 N -10.7581 2.2907 -1.9113 0
M  V30 41 C -12.0850 2.3207 -1.6260 0
M  V30 42 H -13.6389 1.6730 -0.2956 0
M  V30 43 H -9.2775 -1.1148 2.5648 0
M  V30 44 H -11.6727 -1.0059 3.1072 0
M  V30 45 H -13.2289 0.2507 1.6754 0
M  V30 46 H -8.2897 -1.0338 -1.3992 0
M  V30 47 H -5.8869 -1.2802 -1.8787 0
M  V30 48 H -1.3272 -1.7160 -2.7920 0
M  V30 49 H 1.2625 -1.7300 -2.7900 0
M  V30 50 H 5.5369 1.1002 -1.5868 0
M  V30 51 H 7.9399 1.3345 -1.1028 0
M  V30 52 H 13.8087 -0.1895 -0.4785 0
M  V30 53 H 13.1944 -1.1050 -2.6877 0
M  V30 54 H 9.1000 -1.0409 -1.7123 0
M  V30 55 H 13.1200 0.6089 1.7496 0
M  V30 56 H 11.3448 1.0983 3.3807 0
M  V30 57 H 8.9805 0.7501 2.8050 0
M  V30 58 H 7.5866 -1.5829 2.0538 0
M  V30 59 H 5.1821 -1.8095 1.5731 0
M  V30 60 H -4.9415 0.6687 1.8477 0
M  V30 61 H -7.3436 0.9233 2.3258 0
M  V30 62 H -8.8285 1.6248 -1.4253 0
M  V30 63 H -12.7569 2.8888 -2.2553 0
M  V30 END ATOM
M  V30 BEGIN BOND
M  V30 1 2 1 2
M  V30 2 1 2 3
M  V30 3 1 3 4
M  V30 4 2 4 5
M  V30 5 1 5 6
M  V30 6 2 6 7
M  V30 7 1 4 8
M  V30 8 2 8 9
M  V30 9 1 9 10
M  V30 10 2 10 11
M  V30 11 1 11 12
M  V30 12 3 12 13
M  V30 13 1 13 14
M  V30 14 2 14 15
M  V30 15 1 15 16
M  V30 16 2 16 17
M  V30 17 1 17 18
M  V30 18 3 18 19
M  V30 19 1 19 20
M  V30 20 2 20 21
M  V30 21 1 21 22
M  V30 22 2 22 23
M  V30 23 1 23 24
M  V30 24 1 24 25
M  V30 25 1 25 26
M  V30 26 2 26 27
M  V30 27 1 27 28
M  V30 28 2 28 29
M  V30 29 1 29 30
M  V30 30 1 26 31
M  V30 31 2 31 32
M  V30 32 1 32 33
M  V30 33 1 23 34
M  V30 34 2 34 35
M  V30 35 1 17 36
M  V30 36 1 11 37
M  V30 37 2 37 38
M  V30 38 2 3 39
M  V30 39 1 39 40
M  V30 40 2 40 41
M  V30 41 1 41 1
M  V30 42 1 7 2
M  V30 43 1 38 8
M  V30 44 1 36 14
M  V30 45 1 35 20
M  V30 46 2 33 24
M  V30 47 2 30 25
M  V30 48 1 1 42
M  V30 49 1 5 43
M  V30 50 1 6 44
M  V30 51 1 7 45
M  V30 52 1 9 46
M  V30 53 1 10 47
M  V30 54 1 15 48
M  V30 55 1 16 49
M  V30 56 1 21 50
M  V30 57 1 22 51
M  V30 58 1 27 52
M  V30 59 1 28 53
M  V30 60 1 30 54
M  V30 61 1 31 55
M  V30 62 1 32 56
M  V30 63 1 33 57
M  V30 64 1 34 58
M  V30 65 1 35 59
M  V30 66 1 37 60
M  V30 67 1 38 61
M  V30 68 1 39 62
M  V30 69 1 41 63
M  V30 END BOND
M  V30 END CTAB
M  END

$$$$
