
     RDKit          3D

  0  0  0  0  0  0  0  0  0  0999 V3000
M  V30 BEGIN CTAB
M  V30 COUNTS 63 69 0 0 0
M  V30 BEGIN ATOM
M  V30 1 C 12.2987 -2.0285 -0.8290 0
M  V30 2 C 11.5899 -0.9805 -0.2269 0
M  V30 3 C 10.1827 -0.8991 -0.3841 0
M  V30 4 C 9.4738 0.1693 0.2248 0
M  V30 5 C 10.1767 1.1076 0.9985 0
M  V30 6 C 11.5601 1.0136 1.1507 0
M  V30 7 C 12.2667 -0.0197 0.5371 0
M  V30 8 C 8.0130 0.3487 0.0636 0
M  V30 9 C 7.1706 0.3210 1.1864 0
M  V30 10 C 5.7933 0.5114 1.0391 0
M  V30 11 C 5.2476 0.7404 -0.2302 0
M  V30 12 C 3.8300 0.9362 -0.3812 0
M  V30 13 C 2.6425 1.1000 -0.5078 0
M  V30 14 C 1.2283 1.2949 -0.6584 0
M  V30 15 C 0.6280 2.2248 -1.4967 0
M  V30 16 C -0.7701 2.1893 -1.4376 0
M  V30 17 C -1.2497 1.2319 -0.5538 0
M  V30 18 C -2.6346 0.9659 -0.2850 0
M  V30 19 C -3.7973 0.7424 -0.0594 0
M  V30 20 C -5.1855 0.4754 0.2100 0
M  V30 21 C -5.7751 -0.7077 -0.2525 0
M  V30 22 C -7.1237 -0.9677 0.0094 0
M  V30 23 C -7.8969 -0.0412 0.7280 0
M  V30 24 C -9.3192 -0.3241 1.0265 0
M  V30 25 C -10.2955 -0.4813 0.0082 0
M  V30 26 C -11.6303 -0.8006 0.3661 0
M  V30 27 C -12.5994 -0.9632 -0.6326 0
M  V30 28 C -12.2424 -0.7944 -1.9695 0
M  V30 29 N -10.9668 -0.4671 -2.2990 0
M  V30 30 C -9.9989 -0.3051 -1.3588 0
M  V30 31 C -11.9791 -0.9430 1.7162 0
M  V30 32 C -11.0193 -0.7644 2.7114 0
M  V30 33 C -9.7020 -0.4561 2.3716 0
M  V30 34 C -7.2975 1.1370 1.2010 0
M  V30 35 C -5.9487 1.3960 0.9388 0
M  V30 36 S 0.0428 0.4260 0.1578 0
M  V30 37 C 6.0853 0.7825 -1.3518 0
M  V30 38 C 7.4626 0.5924 -1.2055 0
M  V30 39 C 9.5379 -1.9107 -1.1248 0
M  V30 40 N 10.2588 -2.9142 -1.6908 0
M  V30 41 C 11.6084 -2.9898 -1.5655 0
M  V30 42 H 13.3746 -2.1065 -0.7263 0
M  V30 43 H 9.6514 1.9279 1.4731 0
M  V30 44 H 12.0882 1.7495 1.7434 0
M  V30 45 H 13.3413 -0.0725 0.6658 0
M  V30 46 H 7.5803 0.1452 2.1736 0
M  V30 47 H 5.1547 0.4812 1.9138 0
M  V30 48 H 1.1796 2.9070 -2.1306 0
M  V30 49 H -1.4069 2.8413 -2.0214 0
M  V30 50 H -5.1923 -1.4295 -0.8121 0
M  V30 51 H -7.5656 -1.8909 -0.3452 0
M  V30 52 H -13.6236 -1.2127 -0.3817 0
M  V30 53 H -12.9839 -0.9156 -2.7478 0
M  V30 54 H -9.0082 -0.0262 -1.6887 0
M  V30 55 H -12.9960 -1.1850 2.0020 0
M  V30 56 H -11.2963 -0.8710 3.7523 0
M  V30 57 H -8.9707 -0.3364 3.1621 0
M  V30 58 H -7.8769 1.8568 1.7663 0
M  V30 59 H -5.5013 2.3123 1.3049 0
M  V30 60 H 5.6743 0.9649 -2.3375 0
M  V30 61 H 8.1012 0.6369 -2.0793 0
M  V30 62 H 8.4642 -1.9208 -1.2482 0
M  V30 63 H 12.1463 -3.8041 -2.0323 0
M  V30 END ATOM
M  V30 BEGIN BOND
M  V30 1 2 1 2
M  V30 2 1 2 3
M  V30 3 1 3 4
M  V30 4 2 4 5
M  V30 5 1 5 6
M  V30 6 2 6 7
M  V30 7 1 4 8
M  V30 8 2 8 9
M  V30 9 1 9 10
M  V30 10 2 10 11
M  V30 11 1 11 12
M  V30 12 3 12 13
M  V30 13 1 13 14
M  V30 14 2 14 15
M  V30 15 1 15 16
M  V30 16 2 16 17
M  V30 17 1 17 18
M  V30 18 3 18 19
M  V30 19 1 19 20
M  V30 20 2 20 21
M  V30 21 1 21 22
M  V30 22 2 22 23
M  V30 23 1 23 24
M  V30 24 1 24 25
M  V30 25 1 25 26
M  V30 26 2 26 27
M  V30 27 1 27 28
M  V30 28 2 28 29
M  V30 29 1 29 30
M  V30 30 1 26 31
M  V30 31 2 31 32
M  V30 32 1 32 33
M  V30 33 1 23 34
M  V30 34 2 34 35
M  V30 35 1 17 36
M  V30 36 1 11 37
M  V30 37 2 37 38
M  V30 38 2 3 39
M  V30 39 1 39 40
M  V30 40 2 40 41
M  V30 41 1 41 1
M  V30 42 1 7 2
M  V30 43 1 38 8
M  V30 44 1 36 14
M  V30 45 1 35 20
M  V30 46 2 33 24
M  V30 47 2 30 25
M  V30 48 1 1 42
M  V30 49 1 5 43
M  V30 50 1 6 44
M  V30 51 1 7 45
M  V30 52 1 9 46
M  V30 53 1 10 47
M  V30 54 1 15 48
M  V30 55 1 16 49
M  V30 56 1 21 50
M  V30 57 1 22 51
M  V30 58 1 27 52
M  V30 59 1 28 53
M  V30 60 1 30 54
M  V30 61 1 31 55
M  V30 62 1 32 56
M  V30 63 1 33 57
M  V30 64 1 34 58
M  V30 65 1 35 59
M  V30 66 1 37 60
M  V30 67 1 38 61
M  V30 68 1 39 62
M  V30 69 1 41 63
M  V30 END BOND
M  V30 END CTAB
M  END

$$$$
