
     RDKit          3D

  0  0  0  0  0  0  0  0  0  0999 V3000
M  V30 BEGIN CTAB
M  V30 COUNTS 63 69 0 0 0
M  V30 BEGIN ATOM
M  V30 1 C -12.4112 1.3482 -1.1322 0
M  V30 2 C -11.6317 0.7866 -0.1123 0
M  V30 3 C -10.2510 0.5470 -0.3311 0
M  V30 4 C -9.4675 -0.0163 0.7101 0
M  V30 5 C -10.0829 -0.3554 1.9263 0
M  V30 6 C -11.4434 -0.1209 2.1272 0
M  V30 7 C -12.2150 0.4529 1.1178 0
M  V30 8 C -8.0118 -0.2488 0.5732 0
M  V30 9 C -7.1347 0.8307 0.3774 0
M  V30 10 C -5.7587 0.6098 0.2667 0
M  V30 11 C -5.2466 -0.6902 0.3608 0
M  V30 12 C -3.8305 -0.9174 0.2437 0
M  V30 13 C -2.6446 -1.1081 0.1440 0
M  V30 14 C -1.2326 -1.3357 0.0229 0
M  V30 15 C -0.6346 -2.5576 -0.2543 0
M  V30 16 C 0.7614 -2.4789 -0.3198 0
M  V30 17 C 1.2419 -1.1961 -0.0932 0
M  V30 18 C 2.6247 -0.8106 -0.1036 0
M  V30 19 C 3.7858 -0.4869 -0.1141 0
M  V30 20 C 5.1717 -0.1001 -0.1289 0
M  V30 21 C 5.6917 0.6887 0.9049 0
M  V30 22 C 7.0379 1.0667 0.8892 0
M  V30 23 C 7.8778 0.6510 -0.1563 0
M  V30 24 C 9.2968 1.0737 -0.1841 0
M  V30 25 C 10.3702 0.1450 -0.1586 0
M  V30 26 C 11.7043 0.6198 -0.2401 0
M  V30 27 C 12.7699 -0.2898 -0.2222 0
M  V30 28 C 12.5061 -1.6539 -0.1090 0
M  V30 29 N 11.2263 -2.0954 -0.0090 0
M  V30 30 C 10.1670 -1.2439 -0.0271 0
M  V30 31 C 11.9544 1.9962 -0.3286 0
M  V30 32 C 10.8956 2.9029 -0.3304 0
M  V30 33 C 9.5789 2.4478 -0.2573 0
M  V30 34 C 7.3481 -0.1288 -1.1974 0
M  V30 35 C 6.0021 -0.5067 -1.1807 0
M  V30 36 S -0.0476 -0.1545 0.1876 0
M  V30 37 C -6.1155 -1.7683 0.5706 0
M  V30 38 C -7.4919 -1.5483 0.6811 0
M  V30 39 C -9.7160 0.8570 -1.5981 0
M  V30 40 N -10.5047 1.3969 -2.5643 0
M  V30 41 C -11.8221 1.6518 -2.3584 0
M  V30 42 H -13.4665 1.5453 -0.9842 0
M  V30 43 H -9.5009 -0.7890 2.7309 0
M  V30 44 H -11.9012 -0.3810 3.0730 0
M  V30 45 H -13.2696 0.6289 1.2958 0
M  V30 46 H -7.5177 1.8418 0.3116 0
M  V30 47 H -5.0949 1.4516 0.1100 0
M  V30 48 H -1.1865 -3.4762 -0.4059 0
M  V30 49 H 1.3962 -3.3306 -0.5273 0
M  V30 50 H 5.0570 1.0126 1.7210 0
M  V30 51 H 7.4276 1.6778 1.6942 0
M  V30 52 H 13.7962 0.0511 -0.2897 0
M  V30 53 H 13.3220 -2.3640 -0.0918 0
M  V30 54 H 9.1752 -1.6608 0.0753 0
M  V30 55 H 12.9694 2.3709 -0.3893 0
M  V30 56 H 11.0957 3.9648 -0.3947 0
M  V30 57 H 8.7723 3.1711 -0.2758 0
M  V30 58 H 7.9774 -0.4407 -2.0220 0
M  V30 59 H 5.6085 -1.1118 -1.9887 0
M  V30 60 H -5.7293 -2.7776 0.6487 0
M  V30 61 H -8.1535 -2.3907 0.8428 0
M  V30 62 H -8.6797 0.6622 -1.8348 0
M  V30 63 H -12.4158 2.0839 -3.1528 0
M  V30 END ATOM
M  V30 BEGIN BOND
M  V30 1 2 1 2
M  V30 2 1 2 3
M  V30 3 1 3 4
M  V30 4 2 4 5
M  V30 5 1 5 6
M  V30 6 2 6 7
M  V30 7 1 4 8
M  V30 8 2 8 9
M  V30 9 1 9 10
M  V30 10 2 10 11
M  V30 11 1 11 12
M  V30 12 3 12 13
M  V30 13 1 13 14
M  V30 14 2 14 15
M  V30 15 1 15 16
M  V30 16 2 16 17
M  V30 17 1 17 18
M  V30 18 3 18 19
M  V30 19 1 19 20
M  V30 20 2 20 21
M  V30 21 1 21 22
M  V30 22 2 22 23
M  V30 23 1 23 24
M  V30 24 1 24 25
M  V30 25 1 25 26
M  V30 26 2 26 27
M  V30 27 1 27 28
M  V30 28 2 28 29
M  V30 29 1 29 30
M  V30 30 1 26 31
M  V30 31 2 31 32
M  V30 32 1 32 33
M  V30 33 1 23 34
M  V30 34 2 34 35
M  V30 35 1 17 36
M  V30 36 1 11 37
M  V30 37 2 37 38
M  V30 38 2 3 39
M  V30 39 1 39 40
M  V30 40 2 40 41
M  V30 41 1 41 1
M  V30 42 1 7 2
M  V30 43 1 38 8
M  V30 44 1 36 14
M  V30 45 1 35 20
M  V30 46 2 33 24
M  V30 47 2 30 25
M  V30 48 1 1 42
M  V30 49 1 5 43
M  V30 50 1 6 44
M  V30 51 1 7 45
M  V30 52 1 9 46
M  V30 53 1 10 47
M  V30 54 1 15 48
M  V30 55 1 16 49
M  V30 56 1 21 50
M  V30 57 1 22 51
M  V30 58 1 27 52
M  V30 59 1 28 53
M  V30 60 1 30 54
M  V30 61 1 31 55
M  V30 62 1 32 56
M  V30 63 1 33 57
M  V30 64 1 34 58
M  V30 65 1 35 59
M  V30 66 1 37 60
M  V30 67 1 38 61
M  V30 68 1 39 62
M  V30 69 1 41 63
M  V30 END BOND
M  V30 END CTAB
M  END

$$$$
