
     RDKit          3D

  0  0  0  0  0  0  0  0  0  0999 V3000
M  V30 BEGIN CTAB
M  V30 COUNTS 63 69 0 0 0
M  V30 BEGIN ATOM
M  V30 1 C -12.2077 0.9054 1.3258 0
M  V30 2 C -11.5373 0.4228 0.1940 0
M  V30 3 C -10.1193 0.4348 0.1559 0
M  V30 4 C -9.4487 -0.0601 -0.9930 0
M  V30 5 C -10.2037 -0.5240 -2.0830 0
M  V30 6 C -11.5979 -0.5259 -2.0358 0
M  V30 7 C -12.2640 -0.0619 -0.9023 0
M  V30 8 C -7.9725 -0.1233 -1.0865 0
M  V30 9 C -7.2388 -0.9371 -0.2078 0
M  V30 10 C -5.8466 -1.0122 -0.3133 0
M  V30 11 C -5.1770 -0.2814 -1.3026 0
M  V30 12 C -3.7443 -0.3598 -1.4117 0
M  V30 13 C -2.5442 -0.4261 -1.5035 0
M  V30 14 C -1.1151 -0.5058 -1.6130 0
M  V30 15 C -0.4114 -0.8008 -2.7730 0
M  V30 16 C 0.9751 -0.8139 -2.5810 0
M  V30 17 C 1.3425 -0.5291 -1.2728 0
M  V30 18 C 2.6895 -0.4732 -0.7795 0
M  V30 19 C 3.8207 -0.4265 -0.3659 0
M  V30 20 C 5.1713 -0.3706 0.1277 0
M  V30 21 C 5.6729 0.8210 0.6661 0
M  V30 22 C 6.9848 0.8758 1.1462 0
M  V30 23 C 7.8098 -0.2591 1.0832 0
M  V30 24 C 9.1916 -0.2109 1.6127 0
M  V30 25 C 10.1849 0.6481 1.0740 0
M  V30 26 C 11.4742 0.6787 1.6645 0
M  V30 27 C 12.4591 1.5277 1.1430 0
M  V30 28 C 12.1641 2.3235 0.0373 0
M  V30 29 N 10.9337 2.2693 -0.5337 0
M  V30 30 C 9.9517 1.4619 -0.0534 0
M  V30 31 C 11.7630 -0.1461 2.7604 0
M  V30 32 C 10.7889 -1.0040 3.2688 0
M  V30 33 C 9.5153 -1.0384 2.7007 0
M  V30 34 C 7.2980 -1.4547 0.5546 0
M  V30 35 C 5.9858 -1.5085 0.0744 0
M  V30 36 S -0.0355 -0.2604 -0.3478 0
M  V30 37 C -5.9055 0.5221 -2.1889 0
M  V30 38 C -7.2977 0.5969 -2.0850 0
M  V30 39 C -9.4299 0.9696 1.2633 0
M  V30 40 N -10.1152 1.4321 2.3422 0
M  V30 41 C -11.4715 1.4060 2.3984 0
M  V30 42 H -13.2901 0.9005 1.3782 0
M  V30 43 H -9.7084 -0.9024 -2.9693 0
M  V30 44 H -12.1652 -0.8940 -2.8812 0
M  V30 45 H -13.3475 -0.0744 -0.8858 0
M  V30 46 H -7.7459 -1.5138 0.5561 0
M  V30 47 H -5.2936 -1.6417 0.3735 0
M  V30 48 H -0.8818 -1.0018 -3.7270 0
M  V30 49 H 1.6832 -1.0256 -3.3717 0
M  V30 50 H 5.0494 1.7055 0.7174 0
M  V30 51 H 7.3579 1.8006 1.5690 0
M  V30 52 H 13.4487 1.5710 1.5824 0
M  V30 53 H 12.9188 2.9803 -0.3743 0
M  V30 54 H 9.0005 1.4539 -0.5665 0
M  V30 55 H 12.7449 -0.1331 3.2186 0
M  V30 56 H 11.0202 -1.6421 4.1120 0
M  V30 57 H 8.7706 -1.7026 3.1226 0
M  V30 58 H 7.9175 -2.3422 0.5086 0
M  V30 59 H 5.6064 -2.4365 -0.3365 0
M  V30 60 H -5.3977 1.0887 -2.9603 0
M  V30 61 H -7.8497 1.2209 -2.7773 0
M  V30 62 H -8.3512 1.0369 1.2761 0
M  V30 63 H -11.9800 1.7829 3.2758 0
M  V30 END ATOM
M  V30 BEGIN BOND
M  V30 1 2 1 2
M  V30 2 1 2 3
M  V30 3 1 3 4
M  V30 4 2 4 5
M  V30 5 1 5 6
M  V30 6 2 6 7
M  V30 7 1 4 8
M  V30 8 2 8 9
M  V30 9 1 9 10
M  V30 10 2 10 11
M  V30 11 1 11 12
M  V30 12 3 12 13
M  V30 13 1 13 14
M  V30 14 2 14 15
M  V30 15 1 15 16
M  V30 16 2 16 17
M  V30 17 1 17 18
M  V30 18 3 18 19
M  V30 19 1 19 20
M  V30 20 2 20 21
M  V30 21 1 21 22
M  V30 22 2 22 23
M  V30 23 1 23 24
M  V30 24 1 24 25
M  V30 25 1 25 26
M  V30 26 2 26 27
M  V30 27 1 27 28
M  V30 28 2 28 29
M  V30 29 1 29 30
M  V30 30 1 26 31
M  V30 31 2 31 32
M  V30 32 1 32 33
M  V30 33 1 23 34
M  V30 34 2 34 35
M  V30 35 1 17 36
M  V30 36 1 11 37
M  V30 37 2 37 38
M  V30 38 2 3 39
M  V30 39 1 39 40
M  V30 40 2 40 41
M  V30 41 1 41 1
M  V30 42 1 7 2
M  V30 43 1 38 8
M  V30 44 1 36 14
M  V30 45 1 35 20
M  V30 46 2 33 24
M  V30 47 2 30 25
M  V30 48 1 1 42
M  V30 49 1 5 43
M  V30 50 1 6 44
M  V30 51 1 7 45
M  V30 52 1 9 46
M  V30 53 1 10 47
M  V30 54 1 15 48
M  V30 55 1 16 49
M  V30 56 1 21 50
M  V30 57 1 22 51
M  V30 58 1 27 52
M  V30 59 1 28 53
M  V30 60 1 30 54
M  V30 61 1 31 55
M  V30 62 1 32 56
M  V30 63 1 33 57
M  V30 64 1 34 58
M  V30 65 1 35 59
M  V30 66 1 37 60
M  V30 67 1 38 61
M  V30 68 1 39 62
M  V30 69 1 41 63
M  V30 END BOND
M  V30 END CTAB
M  END

$$$$
