
     RDKit          3D

  0  0  0  0  0  0  0  0  0  0999 V3000
M  V30 BEGIN CTAB
M  V30 COUNTS 63 69 0 0 0
M  V30 BEGIN ATOM
M  V30 1 C -12.7438 0.8466 0.4852 0
M  V30 2 C -11.7369 -0.1075 0.2879 0
M  V30 3 C -10.3749 0.2698 0.4064 0
M  V30 4 C -9.3615 -0.7019 0.1976 0
M  V30 5 C -9.7288 -2.0270 -0.0888 0
M  V30 6 C -11.0721 -2.3876 -0.1958 0
M  V30 7 C -12.0729 -1.4338 -0.0162 0
M  V30 8 C -7.9193 -0.3708 0.2500 0
M  V30 9 C -7.3654 0.5384 -0.6662 0
M  V30 10 C -5.9998 0.8351 -0.6269 0
M  V30 11 C -5.1742 0.2181 0.3212 0
M  V30 12 C -3.7689 0.5250 0.3616 0
M  V30 13 C -2.5919 0.7830 0.3947 0
M  V30 14 C -1.1904 1.0907 0.4331 0
M  V30 15 C -0.6347 2.2534 0.9497 0
M  V30 16 C 0.7614 2.2806 0.8515 0
M  V30 17 C 1.2840 1.1390 0.2591 0
M  V30 18 C 2.6773 0.8853 0.0248 0
M  V30 19 C 3.8470 0.6714 -0.1724 0
M  V30 20 C 5.2432 0.4150 -0.4080 0
M  V30 21 C 6.0818 1.4463 -0.8493 0
M  V30 22 C 7.4382 1.1970 -1.0797 0
M  V30 23 C 7.9693 -0.0841 -0.8615 0
M  V30 24 C 9.4007 -0.3519 -1.1289 0
M  V30 25 C 10.2968 -0.7875 -0.1180 0
M  V30 26 C 11.6433 -1.0760 -0.4577 0
M  V30 27 C 12.5333 -1.5126 0.5325 0
M  V30 28 C 12.0873 -1.6445 1.8465 0
M  V30 29 N 10.8021 -1.3438 2.1643 0
M  V30 30 C 9.9090 -0.9217 1.2308 0
M  V30 31 C 12.0829 -0.9149 -1.7788 0
M  V30 32 C 11.2025 -0.4641 -2.7611 0
M  V30 33 C 9.8742 -0.1831 -2.4405 0
M  V30 34 C 7.1214 -1.1181 -0.4317 0
M  V30 35 C 5.7654 -0.8679 -0.2014 0
M  V30 36 S 0.0321 0.0926 -0.1461 0
M  V30 37 C -5.7189 -0.7006 1.2273 0
M  V30 38 C -7.0848 -0.9975 1.1892 0
M  V30 39 C -10.0839 1.6039 0.7574 0
M  V30 40 N -11.0880 2.5002 0.9451 0
M  V30 41 C -12.3943 2.1559 0.8116 0
M  V30 42 H -13.7904 0.5813 0.3933 0
M  V30 43 H -8.9687 -2.7826 -0.2479 0
M  V30 44 H -11.3385 -3.4112 -0.4254 0
M  V30 45 H -13.1100 -1.7343 -0.1075 0
M  V30 46 H -7.9916 1.0150 -1.4106 0
M  V30 47 H -5.5876 1.5425 -1.3365 0
M  V30 48 H -1.2164 3.0564 1.3834 0
M  V30 49 H 1.3664 3.1068 1.2019 0
M  V30 50 H 5.6870 2.4414 -1.0164 0
M  V30 51 H 8.0761 2.0029 -1.4217 0
M  V30 52 H 13.5646 -1.7441 0.2935 0
M  V30 53 H 12.7674 -1.9787 2.6186 0
M  V30 54 H 8.9064 -0.6816 1.5551 0
M  V30 55 H 13.1097 -1.1306 -2.0500 0
M  V30 56 H 11.5496 -0.3372 -3.7785 0
M  V30 57 H 9.2050 0.1516 -3.2242 0
M  V30 58 H 7.5112 -2.1169 -0.2780 0
M  V30 59 H 5.1242 -1.6743 0.1339 0
M  V30 60 H -5.0882 -1.1868 1.9619 0
M  V30 61 H -7.4939 -1.7097 1.8955 0
M  V30 62 H -9.0664 1.9402 0.8981 0
M  V30 63 H -13.1643 2.8995 0.9680 0
M  V30 END ATOM
M  V30 BEGIN BOND
M  V30 1 2 1 2
M  V30 2 1 2 3
M  V30 3 1 3 4
M  V30 4 2 4 5
M  V30 5 1 5 6
M  V30 6 2 6 7
M  V30 7 1 4 8
M  V30 8 2 8 9
M  V30 9 1 9 10
M  V30 10 2 10 11
M  V30 11 1 11 12
M  V30 12 3 12 13
M  V30 13 1 13 14
M  V30 14 2 14 15
M  V30 15 1 15 16
M  V30 16 2 16 17
M  V30 17 1 17 18
M  V30 18 3 18 19
M  V30 19 1 19 20
M  V30 20 2 20 21
M  V30 21 1 21 22
M  V30 22 2 22 23
M  V30 23 1 23 24
M  V30 24 1 24 25
M  V30 25 1 25 26
M  V30 26 2 26 27
M  V30 27 1 27 28
M  V30 28 2 28 29
M  V30 29 1 29 30
M  V30 30 1 26 31
M  V30 31 2 31 32
M  V30 32 1 32 33
M  V30 33 1 23 34
M  V30 34 2 34 35
M  V30 35 1 17 36
M  V30 36 1 11 37
M  V30 37 2 37 38
M  V30 38 2 3 39
M  V30 39 1 39 40
M  V30 40 2 40 41
M  V30 41 1 41 1
M  V30 42 1 7 2
M  V30 43 1 38 8
M  V30 44 1 36 14
M  V30 45 1 35 20
M  V30 46 2 33 24
M  V30 47 2 30 25
M  V30 48 1 1 42
M  V30 49 1 5 43
M  V30 50 1 6 44
M  V30 51 1 7 45
M  V30 52 1 9 46
M  V30 53 1 10 47
M  V30 54 1 15 48
M  V30 55 1 16 49
M  V30 56 1 21 50
M  V30 57 1 22 51
M  V30 58 1 27 52
M  V30 59 1 28 53
M  V30 60 1 30 54
M  V30 61 1 31 55
M  V30 62 1 32 56
M  V30 63 1 33 57
M  V30 64 1 34 58
M  V30 65 1 35 59
M  V30 66 1 37 60
M  V30 67 1 38 61
M  V30 68 1 39 62
M  V30 69 1 41 63
M  V30 END BOND
M  V30 END CTAB
M  END

$$$$
