
     RDKit          3D

  0  0  0  0  0  0  0  0  0  0999 V3000
M  V30 BEGIN CTAB
M  V30 COUNTS 63 69 0 0 0
M  V30 BEGIN ATOM
M  V30 1 C 12.5319 -2.3455 0.8871 0
M  V30 2 C 11.6648 -1.2453 0.9150 0
M  V30 3 C 10.2902 -1.4232 0.6138 0
M  V30 4 C 9.4180 -0.3039 0.6494 0
M  V30 5 C 9.9401 0.9647 0.9517 0
M  V30 6 C 11.2952 1.1281 1.2406 0
M  V30 7 C 12.1541 0.0301 1.2297 0
M  V30 8 C 7.9640 -0.4199 0.3955 0
M  V30 9 C 7.3780 0.2716 -0.6766 0
M  V30 10 C 6.0015 0.1821 -0.9050 0
M  V30 11 C 5.1980 -0.5916 -0.0582 0
M  V30 12 C 3.7810 -0.6827 -0.2929 0
M  V30 13 C 2.5941 -0.7596 -0.4888 0
M  V30 14 C 1.1804 -0.8522 -0.7207 0
M  V30 15 C 0.5531 -1.8160 -1.4986 0
M  V30 16 C -0.8376 -1.6631 -1.5395 0
M  V30 17 C -1.2846 -0.5810 -0.7935 0
M  V30 18 C -2.6554 -0.1821 -0.6435 0
M  V30 19 C -3.8066 0.1517 -0.5161 0
M  V30 20 C -5.1813 0.5487 -0.3627 0
M  V30 21 C -5.5501 1.8877 -0.5435 0
M  V30 22 C -6.8858 2.2738 -0.3934 0
M  V30 23 C -7.8657 1.3215 -0.0707 0
M  V30 24 C -9.2759 1.7355 0.1077 0
M  V30 25 C -10.3259 1.2342 -0.7052 0
M  V30 26 C -11.6607 1.6373 -0.4460 0
M  V30 27 C -12.7040 1.1437 -1.2404 0
M  V30 28 C -12.4150 0.2712 -2.2884 0
M  V30 29 N -11.1313 -0.0907 -2.5408 0
M  V30 30 C -10.0939 0.3638 -1.7897 0
M  V30 31 C -11.9321 2.5347 0.5960 0
M  V30 32 C -10.8926 3.0396 1.3757 0
M  V30 33 C -9.5762 2.6462 1.1340 0
M  V30 34 C -7.4887 -0.0175 0.1229 0
M  V30 35 C -6.1529 -0.4025 -0.0272 0
M  V30 36 S 0.0278 0.1908 -0.0805 0
M  V30 37 C 5.7759 -1.2730 1.0202 0
M  V30 38 C 7.1522 -1.1842 1.2493 0
M  V30 39 C 9.8497 -2.7151 0.2612 0
M  V30 40 N 10.7216 -3.7575 0.2413 0
M  V30 41 C 12.0347 -3.6031 0.5488 0
M  V30 42 H 13.5842 -2.2330 1.1193 0
M  V30 43 H 9.2894 1.8307 0.9806 0
M  V30 44 H 11.6803 2.1112 1.4796 0
M  V30 45 H 13.2028 0.1787 1.4595 0
M  V30 46 H 7.9884 0.8741 -1.3381 0
M  V30 47 H 5.5641 0.7164 -1.7397 0
M  V30 48 H 1.0801 -2.6054 -2.0185 0
M  V30 49 H -1.4924 -2.3227 -2.0942 0
M  V30 50 H -4.8059 2.6323 -0.7995 0
M  V30 51 H -7.1582 3.3125 -0.5358 0
M  V30 52 H -13.7314 1.4341 -1.0560 0
M  V30 53 H -13.2132 -0.1133 -2.9090 0
M  V30 54 H -9.0946 0.0506 -2.0566 0
M  V30 55 H -12.9476 2.8516 0.8025 0
M  V30 56 H -11.1084 3.7359 2.1759 0
M  V30 57 H -8.7868 3.0410 1.7624 0
M  V30 58 H -8.2293 -0.7611 0.3914 0
M  V30 59 H -5.8776 -1.4399 0.1209 0
M  V30 60 H 5.1626 -1.8698 1.6845 0
M  V30 61 H 7.5857 -1.7082 2.0925 0
M  V30 62 H 8.8214 -2.9041 -0.0123 0
M  V30 63 H 12.6966 -4.4584 0.5224 0
M  V30 END ATOM
M  V30 BEGIN BOND
M  V30 1 2 1 2
M  V30 2 1 2 3
M  V30 3 1 3 4
M  V30 4 2 4 5
M  V30 5 1 5 6
M  V30 6 2 6 7
M  V30 7 1 4 8
M  V30 8 2 8 9
M  V30 9 1 9 10
M  V30 10 2 10 11
M  V30 11 1 11 12
M  V30 12 3 12 13
M  V30 13 1 13 14
M  V30 14 2 14 15
M  V30 15 1 15 16
M  V30 16 2 16 17
M  V30 17 1 17 18
M  V30 18 3 18 19
M  V30 19 1 19 20
M  V30 20 2 20 21
M  V30 21 1 21 22
M  V30 22 2 22 23
M  V30 23 1 23 24
M  V30 24 1 24 25
M  V30 25 1 25 26
M  V30 26 2 26 27
M  V30 27 1 27 28
M  V30 28 2 28 29
M  V30 29 1 29 30
M  V30 30 1 26 31
M  V30 31 2 31 32
M  V30 32 1 32 33
M  V30 33 1 23 34
M  V30 34 2 34 35
M  V30 35 1 17 36
M  V30 36 1 11 37
M  V30 37 2 37 38
M  V30 38 2 3 39
M  V30 39 1 39 40
M  V30 40 2 40 41
M  V30 41 1 41 1
M  V30 42 1 7 2
M  V30 43 1 38 8
M  V30 44 1 36 14
M  V30 45 1 35 20
M  V30 46 2 33 24
M  V30 47 2 30 25
M  V30 48 1 1 42
M  V30 49 1 5 43
M  V30 50 1 6 44
M  V30 51 1 7 45
M  V30 52 1 9 46
M  V30 53 1 10 47
M  V30 54 1 15 48
M  V30 55 1 16 49
M  V30 56 1 21 50
M  V30 57 1 22 51
M  V30 58 1 27 52
M  V30 59 1 28 53
M  V30 60 1 30 54
M  V30 61 1 31 55
M  V30 62 1 32 56
M  V30 63 1 33 57
M  V30 64 1 34 58
M  V30 65 1 35 59
M  V30 66 1 37 60
M  V30 67 1 38 61
M  V30 68 1 39 62
M  V30 69 1 41 63
M  V30 END BOND
M  V30 END CTAB
M  END

$$$$
