
     RDKit          3D

  0  0  0  0  0  0  0  0  0  0999 V3000
M  V30 BEGIN CTAB
M  V30 COUNTS 63 69 0 0 0
M  V30 BEGIN ATOM
M  V30 1 C -12.3317 1.2423 -0.5969 0
M  V30 2 C -11.5839 0.0605 -0.5130 0
M  V30 3 C -10.1761 0.1266 -0.3530 0
M  V30 4 C -9.4274 -1.0759 -0.2631 0
M  V30 5 C -10.0925 -2.3088 -0.3669 0
M  V30 6 C -11.4769 -2.3609 -0.5303 0
M  V30 7 C -12.2221 -1.1847 -0.5965 0
M  V30 8 C -7.9630 -1.0868 -0.0449 0
M  V30 9 C -7.4162 -0.5552 1.1346 0
M  V30 10 C -6.0347 -0.5855 1.3472 0
M  V30 11 C -5.1890 -1.1563 0.3879 0
M  V30 12 C -3.7671 -1.1871 0.6071 0
M  V30 13 C -2.5761 -1.2124 0.7910 0
M  V30 14 C -1.1577 -1.2420 1.0104 0
M  V30 15 C -0.5177 -1.8942 2.0557 0
M  V30 16 C 0.8741 -1.7498 2.0176 0
M  V30 17 C 1.3092 -0.9861 0.9429 0
M  V30 18 C 2.6774 -0.6674 0.6472 0
M  V30 19 C 3.8262 -0.3996 0.3994 0
M  V30 20 C 5.1977 -0.0795 0.1041 0
M  V30 21 C 6.2332 -0.7503 0.7667 0
M  V30 22 C 7.5659 -0.4394 0.4804 0
M  V30 23 C 7.8742 0.5530 -0.4645 0
M  V30 24 C 9.2845 0.8690 -0.7861 0
M  V30 25 C 10.1900 1.3828 0.1788 0
M  V30 26 C 11.5403 1.6158 -0.1877 0
M  V30 27 C 12.4425 2.1175 0.7597 0
M  V30 28 C 11.9976 2.3962 2.0510 0
M  V30 29 N 10.6978 2.1902 2.3842 0
M  V30 30 C 9.7947 1.7012 1.4941 0
M  V30 31 C 11.9666 1.3535 -1.4969 0
M  V30 32 C 11.0656 0.8705 -2.4447 0
M  V30 33 C 9.7364 0.6317 -2.0947 0
M  V30 34 C 6.8326 1.2128 -1.1359 0
M  V30 35 C 5.5001 0.9009 -0.8491 0
M  V30 36 S -0.0152 -0.4856 0.0362 0
M  V30 37 C -5.7306 -1.7004 -0.7834 0
M  V30 38 C -7.1121 -1.6702 -0.9971 0
M  V30 39 C -9.5713 1.3996 -0.3171 0
M  V30 40 N -10.3296 2.5240 -0.4057 0
M  V30 41 C -11.6798 2.4729 -0.5366 0
M  V30 42 H -13.4087 1.2146 -0.7135 0
M  V30 43 H -9.5365 -3.2366 -0.3035 0
M  V30 44 H -11.9753 -3.3192 -0.6003 0
M  V30 45 H -13.2967 -1.2478 -0.7206 0
M  V30 46 H -8.0606 -0.1197 1.8885 0
M  V30 47 H -5.6267 -0.1672 2.2595 0
M  V30 48 H -1.0368 -2.4557 2.8217 0
M  V30 49 H 1.5381 -2.1886 2.7512 0
M  V30 50 H 6.0104 -1.5147 1.5015 0
M  V30 51 H 8.3578 -0.9721 0.9926 0
M  V30 52 H 13.4797 2.2974 0.5025 0
M  V30 53 H 12.6860 2.7860 2.7889 0
M  V30 54 H 8.7716 1.5787 1.8199 0
M  V30 55 H 12.9952 1.5293 -1.7891 0
M  V30 56 H 11.4001 0.6746 -3.4553 0
M  V30 57 H 9.0584 0.2425 -2.8449 0
M  V30 58 H 7.0533 1.9728 -1.8755 0
M  V30 59 H 4.7067 1.4229 -1.3705 0
M  V30 60 H -5.0857 -2.1483 -1.5300 0
M  V30 61 H -7.5185 -2.0947 -1.9070 0
M  V30 62 H -8.4997 1.5118 -0.2329 0
M  V30 63 H -12.2481 3.3910 -0.6028 0
M  V30 END ATOM
M  V30 BEGIN BOND
M  V30 1 2 1 2
M  V30 2 1 2 3
M  V30 3 1 3 4
M  V30 4 2 4 5
M  V30 5 1 5 6
M  V30 6 2 6 7
M  V30 7 1 4 8
M  V30 8 2 8 9
M  V30 9 1 9 10
M  V30 10 2 10 11
M  V30 11 1 11 12
M  V30 12 3 12 13
M  V30 13 1 13 14
M  V30 14 2 14 15
M  V30 15 1 15 16
M  V30 16 2 16 17
M  V30 17 1 17 18
M  V30 18 3 18 19
M  V30 19 1 19 20
M  V30 20 2 20 21
M  V30 21 1 21 22
M  V30 22 2 22 23
M  V30 23 1 23 24
M  V30 24 1 24 25
M  V30 25 1 25 26
M  V30 26 2 26 27
M  V30 27 1 27 28
M  V30 28 2 28 29
M  V30 29 1 29 30
M  V30 30 1 26 31
M  V30 31 2 31 32
M  V30 32 1 32 33
M  V30 33 1 23 34
M  V30 34 2 34 35
M  V30 35 1 17 36
M  V30 36 1 11 37
M  V30 37 2 37 38
M  V30 38 2 3 39
M  V30 39 1 39 40
M  V30 40 2 40 41
M  V30 41 1 41 1
M  V30 42 1 7 2
M  V30 43 1 38 8
M  V30 44 1 36 14
M  V30 45 1 35 20
M  V30 46 2 33 24
M  V30 47 2 30 25
M  V30 48 1 1 42
M  V30 49 1 5 43
M  V30 50 1 6 44
M  V30 51 1 7 45
M  V30 52 1 9 46
M  V30 53 1 10 47
M  V30 54 1 15 48
M  V30 55 1 16 49
M  V30 56 1 21 50
M  V30 57 1 22 51
M  V30 58 1 27 52
M  V30 59 1 28 53
M  V30 60 1 30 54
M  V30 61 1 31 55
M  V30 62 1 32 56
M  V30 63 1 33 57
M  V30 64 1 34 58
M  V30 65 1 35 59
M  V30 66 1 37 60
M  V30 67 1 38 61
M  V30 68 1 39 62
M  V30 69 1 41 63
M  V30 END BOND
M  V30 END CTAB
M  END

$$$$
