
     RDKit          3D

  0  0  0  0  0  0  0  0  0  0999 V3000
M  V30 BEGIN CTAB
M  V30 COUNTS 63 69 0 0 0
M  V30 BEGIN ATOM
M  V30 1 C -11.8843 -1.3626 -3.2000 0
M  V30 2 C -11.3332 -1.4322 -1.9136 0
M  V30 3 C -9.9481 -1.1908 -1.7257 0
M  V30 4 C -9.3998 -1.2584 -0.4181 0
M  V30 5 C -10.2347 -1.5949 0.6604 0
M  V30 6 C -11.5943 -1.8358 0.4620 0
M  V30 7 C -12.1449 -1.7491 -0.8157 0
M  V30 8 C -7.9749 -0.9703 -0.1365 0
M  V30 9 C -7.4441 0.3056 -0.3882 0
M  V30 10 C -6.1046 0.5818 -0.0977 0
M  V30 11 C -5.2871 -0.4112 0.4562 0
M  V30 12 C -3.9101 -0.1252 0.7610 0
M  V30 13 C -2.7571 0.1137 1.0191 0
M  V30 14 C -1.3846 0.3974 1.3300 0
M  V30 15 C -0.9412 1.1187 2.4302 0
M  V30 16 C 0.4530 1.2302 2.4832 0
M  V30 17 C 1.0868 0.5952 1.4238 0
M  V30 18 C 2.5062 0.5361 1.2178 0
M  V30 19 C 3.6984 0.4861 1.0471 0
M  V30 20 C 5.1220 0.4261 0.8458 0
M  V30 21 C 5.9775 1.1843 1.6548 0
M  V30 22 C 7.3609 1.1240 1.4619 0
M  V30 23 C 7.9001 0.3116 0.4509 0
M  V30 24 C 9.3659 0.2270 0.2600 0
M  V30 25 C 10.1538 1.3507 -0.1021 0
M  V30 26 C 11.5600 1.2071 -0.2185 0
M  V30 27 C 12.3463 2.3124 -0.5698 0
M  V30 28 C 11.7339 3.5402 -0.8154 0
M  V30 29 N 10.3849 3.6606 -0.7226 0
M  V30 30 C 9.5900 2.6125 -0.3808 0
M  V30 31 C 12.1585 -0.0399 0.0082 0
M  V30 32 C 11.3751 -1.1440 0.3411 0
M  V30 33 C 9.9917 -1.0139 0.4645 0
M  V30 34 C 7.0389 -0.4564 -0.3488 0
M  V30 35 C 5.6555 -0.3954 -0.1551 0
M  V30 36 S -0.0644 -0.1065 0.4191 0
M  V30 37 C -5.8151 -1.6811 0.7210 0
M  V30 38 C -7.1543 -1.9584 0.4301 0
M  V30 39 C -9.1616 -0.9180 -2.8635 0
M  V30 40 N -9.7313 -0.8624 -4.0962 0
M  V30 41 C -11.0596 -1.0699 -4.2850 0
M  V30 42 H -12.9408 -1.5381 -3.3651 0
M  V30 43 H -9.8328 -1.6542 1.6649 0
M  V30 44 H -12.2257 -2.0858 1.3049 0
M  V30 45 H -13.2040 -1.9371 -0.9471 0
M  V30 46 H -8.0691 1.0855 -0.8060 0
M  V30 47 H -5.7081 1.5694 -0.3005 0
M  V30 48 H -1.6009 1.5490 3.1725 0
M  V30 49 H 0.9783 1.7556 3.2703 0
M  V30 50 H 5.5756 1.8182 2.4361 0
M  V30 51 H 8.0125 1.7074 2.1007 0
M  V30 52 H 13.4228 2.2261 -0.6588 0
M  V30 53 H 12.3321 4.3990 -1.0893 0
M  V30 54 H 8.5219 2.7727 -0.3434 0
M  V30 55 H 13.2316 -0.1623 -0.0794 0
M  V30 56 H 11.8429 -2.1053 0.5102 0
M  V30 57 H 9.4055 -1.8830 0.7385 0
M  V30 58 H 7.4391 -1.0964 -1.1256 0
M  V30 59 H 5.0028 -0.9893 -0.7837 0
M  V30 60 H -5.1926 -2.4550 1.1538 0
M  V30 61 H -7.5508 -2.9442 0.6411 0
M  V30 62 H -8.0950 -0.7614 -2.7864 0
M  V30 63 H -11.4752 -1.0158 -5.2824 0
M  V30 END ATOM
M  V30 BEGIN BOND
M  V30 1 2 1 2
M  V30 2 1 2 3
M  V30 3 1 3 4
M  V30 4 2 4 5
M  V30 5 1 5 6
M  V30 6 2 6 7
M  V30 7 1 4 8
M  V30 8 2 8 9
M  V30 9 1 9 10
M  V30 10 2 10 11
M  V30 11 1 11 12
M  V30 12 3 12 13
M  V30 13 1 13 14
M  V30 14 2 14 15
M  V30 15 1 15 16
M  V30 16 2 16 17
M  V30 17 1 17 18
M  V30 18 3 18 19
M  V30 19 1 19 20
M  V30 20 2 20 21
M  V30 21 1 21 22
M  V30 22 2 22 23
M  V30 23 1 23 24
M  V30 24 1 24 25
M  V30 25 1 25 26
M  V30 26 2 26 27
M  V30 27 1 27 28
M  V30 28 2 28 29
M  V30 29 1 29 30
M  V30 30 1 26 31
M  V30 31 2 31 32
M  V30 32 1 32 33
M  V30 33 1 23 34
M  V30 34 2 34 35
M  V30 35 1 17 36
M  V30 36 1 11 37
M  V30 37 2 37 38
M  V30 38 2 3 39
M  V30 39 1 39 40
M  V30 40 2 40 41
M  V30 41 1 41 1
M  V30 42 1 7 2
M  V30 43 1 38 8
M  V30 44 1 36 14
M  V30 45 1 35 20
M  V30 46 2 33 24
M  V30 47 2 30 25
M  V30 48 1 1 42
M  V30 49 1 5 43
M  V30 50 1 6 44
M  V30 51 1 7 45
M  V30 52 1 9 46
M  V30 53 1 10 47
M  V30 54 1 15 48
M  V30 55 1 16 49
M  V30 56 1 21 50
M  V30 57 1 22 51
M  V30 58 1 27 52
M  V30 59 1 28 53
M  V30 60 1 30 54
M  V30 61 1 31 55
M  V30 62 1 32 56
M  V30 63 1 33 57
M  V30 64 1 34 58
M  V30 65 1 35 59
M  V30 66 1 37 60
M  V30 67 1 38 61
M  V30 68 1 39 62
M  V30 69 1 41 63
M  V30 END BOND
M  V30 END CTAB
M  END

$$$$
