
     RDKit          3D

  0  0  0  0  0  0  0  0  0  0999 V3000
M  V30 BEGIN CTAB
M  V30 COUNTS 63 69 0 0 0
M  V30 BEGIN ATOM
M  V30 1 C -12.5835 -1.9689 -0.5989 0
M  V30 2 C -11.6109 -1.7490 0.3854 0
M  V30 3 C -10.2373 -1.7518 0.0321 0
M  V30 4 C -9.2592 -1.5202 1.0346 0
M  V30 5 C -9.6698 -1.3279 2.3639 0
M  V30 6 C -11.0239 -1.3330 2.7000 0
M  V30 7 C -11.9918 -1.5349 1.7172 0
M  V30 8 C -7.8122 -1.4505 0.7311 0
M  V30 9 C -6.9216 -2.3592 1.3247 0
M  V30 10 C -5.5524 -2.2865 1.0486 0
M  V30 11 C -5.0617 -1.2989 0.1842 0
M  V30 12 C -3.6544 -1.2246 -0.1070 0
M  V30 13 C -2.4778 -1.1543 -0.3587 0
M  V30 14 C -1.0786 -1.0613 -0.6671 0
M  V30 15 C -0.4729 -1.5533 -1.8150 0
M  V30 16 C 0.9013 -1.2896 -1.8629 0
M  V30 17 C 1.3569 -0.5931 -0.7522 0
M  V30 18 C 2.7088 -0.1590 -0.5391 0
M  V30 19 C 3.8433 0.2100 -0.3653 0
M  V30 20 C 5.1971 0.6543 -0.1633 0
M  V30 21 C 6.1141 -0.1665 0.5052 0
M  V30 22 C 7.4297 0.2651 0.6996 0
M  V30 23 C 7.8416 1.5185 0.2195 0
M  V30 24 C 9.2286 1.9838 0.4473 0
M  V30 25 C 10.1157 2.2879 -0.6185 0
M  V30 26 C 11.4146 2.7775 -0.3261 0
M  V30 27 C 12.2948 3.0853 -1.3718 0
M  V30 28 C 11.8878 2.8923 -2.6909 0
M  V30 29 N 10.6500 2.4030 -2.9584 0
M  V30 30 C 9.7677 2.0967 -1.9710 0
M  V30 31 C 11.8174 2.9443 1.0064 0
M  V30 32 C 10.9479 2.6227 2.0476 0
M  V30 33 C 9.6661 2.1449 1.7727 0
M  V30 34 C 6.9144 2.3439 -0.4375 0
M  V30 35 C 5.5996 1.9111 -0.6322 0
M  V30 36 S 0.0719 -0.2954 0.2907 0
M  V30 37 C -5.9445 -0.3804 -0.3977 0
M  V30 38 C -7.3130 -0.4524 -0.1219 0
M  V30 39 C -9.8976 -2.0144 -1.3108 0
M  V30 40 N -10.8692 -2.2284 -2.2368 0
M  V30 41 C -12.1878 -2.2047 -1.9146 0
M  V30 42 H -13.6383 -1.9643 -0.3520 0
M  V30 43 H -8.9366 -1.1534 3.1426 0
M  V30 44 H -11.3246 -1.1732 3.7275 0
M  V30 45 H -13.0379 -1.5316 1.9997 0
M  V30 46 H -7.2899 -3.1290 1.9927 0
M  V30 47 H -4.8781 -2.9999 1.5072 0
M  V30 48 H -1.0048 -2.0815 -2.5961 0
M  V30 49 H 1.5362 -1.5923 -2.6850 0
M  V30 50 H 5.8122 -1.1381 0.8776 0
M  V30 51 H 8.1289 -0.3795 1.2180 0
M  V30 52 H 13.2891 3.4670 -1.1710 0
M  V30 53 H 12.5610 3.1244 -3.5052 0
M  V30 54 H 8.8055 1.6934 -2.2531 0
M  V30 55 H 12.8076 3.3168 1.2419 0
M  V30 56 H 11.2663 2.7493 3.0748 0
M  V30 57 H 9.0038 1.9153 2.5991 0
M  V30 58 H 7.2111 3.3218 -0.7964 0
M  V30 59 H 4.8968 2.5569 -1.1444 0
M  V30 60 H -5.5748 0.3908 -1.0631 0
M  V30 61 H -7.9846 0.2683 -0.5728 0
M  V30 62 H -8.8668 -2.0662 -1.6317 0
M  V30 63 H -12.9312 -2.3778 -2.6812 0
M  V30 END ATOM
M  V30 BEGIN BOND
M  V30 1 2 1 2
M  V30 2 1 2 3
M  V30 3 1 3 4
M  V30 4 2 4 5
M  V30 5 1 5 6
M  V30 6 2 6 7
M  V30 7 1 4 8
M  V30 8 2 8 9
M  V30 9 1 9 10
M  V30 10 2 10 11
M  V30 11 1 11 12
M  V30 12 3 12 13
M  V30 13 1 13 14
M  V30 14 2 14 15
M  V30 15 1 15 16
M  V30 16 2 16 17
M  V30 17 1 17 18
M  V30 18 3 18 19
M  V30 19 1 19 20
M  V30 20 2 20 21
M  V30 21 1 21 22
M  V30 22 2 22 23
M  V30 23 1 23 24
M  V30 24 1 24 25
M  V30 25 1 25 26
M  V30 26 2 26 27
M  V30 27 1 27 28
M  V30 28 2 28 29
M  V30 29 1 29 30
M  V30 30 1 26 31
M  V30 31 2 31 32
M  V30 32 1 32 33
M  V30 33 1 23 34
M  V30 34 2 34 35
M  V30 35 1 17 36
M  V30 36 1 11 37
M  V30 37 2 37 38
M  V30 38 2 3 39
M  V30 39 1 39 40
M  V30 40 2 40 41
M  V30 41 1 41 1
M  V30 42 1 7 2
M  V30 43 1 38 8
M  V30 44 1 36 14
M  V30 45 1 35 20
M  V30 46 2 33 24
M  V30 47 2 30 25
M  V30 48 1 1 42
M  V30 49 1 5 43
M  V30 50 1 6 44
M  V30 51 1 7 45
M  V30 52 1 9 46
M  V30 53 1 10 47
M  V30 54 1 15 48
M  V30 55 1 16 49
M  V30 56 1 21 50
M  V30 57 1 22 51
M  V30 58 1 27 52
M  V30 59 1 28 53
M  V30 60 1 30 54
M  V30 61 1 31 55
M  V30 62 1 32 56
M  V30 63 1 33 57
M  V30 64 1 34 58
M  V30 65 1 35 59
M  V30 66 1 37 60
M  V30 67 1 38 61
M  V30 68 1 39 62
M  V30 69 1 41 63
M  V30 END BOND
M  V30 END CTAB
M  END

$$$$
