
     RDKit          3D

  0  0  0  0  0  0  0  0  0  0999 V3000
M  V30 BEGIN CTAB
M  V30 COUNTS 63 69 0 0 0
M  V30 BEGIN ATOM
M  V30 1 C -12.2321 0.3123 1.8795 0
M  V30 2 C -11.5678 0.0362 0.6771 0
M  V30 3 C -10.1548 0.1402 0.6121 0
M  V30 4 C -9.4900 -0.1464 -0.6087 0
M  V30 5 C -10.2482 -0.4968 -1.7381 0
M  V30 6 C -11.6380 -0.5899 -1.6633 0
M  V30 7 C -12.2966 -0.3321 -0.4620 0
M  V30 8 C -8.0158 -0.1069 -0.7398 0
M  V30 9 C -7.2118 -0.9848 0.0056 0
M  V30 10 C -5.8211 -0.9581 -0.1349 0
M  V30 11 C -5.2227 -0.0609 -1.0283 0
M  V30 12 C -3.7911 -0.0326 -1.1724 0
M  V30 13 C -2.5922 -0.0069 -1.2948 0
M  V30 14 C -1.1647 0.0266 -1.4431 0
M  V30 15 C -0.4818 0.0730 -2.6508 0
M  V30 16 C 0.9082 0.1066 -2.4902 0
M  V30 17 C 1.2993 0.0864 -1.1584 0
M  V30 18 C 2.6554 0.1205 -0.6888 0
M  V30 19 C 3.7949 0.1512 -0.2971 0
M  V30 20 C 5.1562 0.1898 0.1676 0
M  V30 21 C 6.1594 0.7322 -0.6452 0
M  V30 22 C 7.4822 0.7709 -0.1944 0
M  V30 23 C 7.8147 0.2578 1.0701 0
M  V30 24 C 9.2109 0.3183 1.5593 0
M  V30 25 C 10.2778 -0.3522 0.9057 0
M  V30 26 C 11.5993 -0.2069 1.4004 0
M  V30 27 C 12.6594 -0.8598 0.7576 0
M  V30 28 C 12.4001 -1.6592 -0.3546 0
M  V30 29 N 11.1284 -1.8090 -0.8057 0
M  V30 30 C 10.0753 -1.1882 -0.2114 0
M  V30 31 C 11.8406 0.5807 2.5346 0
M  V30 32 C 10.7841 1.2172 3.1846 0
M  V30 33 C 9.4809 1.0869 2.7038 0
M  V30 34 C 6.8029 -0.2724 1.8865 0
M  V30 35 C 5.4802 -0.3103 1.4349 0
M  V30 36 S -0.0621 0.0281 -0.1737 0
M  V30 37 C -6.0209 0.8068 -1.7842 0
M  V30 38 C -7.4117 0.7808 -1.6444 0
M  V30 39 C -9.4659 0.5556 1.7700 0
M  V30 40 N -10.1452 0.8186 2.9172 0
M  V30 41 C -11.4953 0.7011 2.9971 0
M  V30 42 H -13.3103 0.2339 1.9525 0
M  V30 43 H -9.7577 -0.7159 -2.6790 0
M  V30 44 H -12.2072 -0.8692 -2.5405 0
M  V30 45 H -13.3765 -0.4130 -0.4251 0
M  V30 46 H -7.6631 -1.6894 0.6935 0
M  V30 47 H -5.2133 -1.6379 0.4501 0
M  V30 48 H -0.9694 0.0845 -3.6170 0
M  V30 49 H 1.6020 0.1467 -3.3198 0
M  V30 50 H 5.9186 1.1275 -1.6248 0
M  V30 51 H 8.2473 1.2019 -0.8284 0
M  V30 52 H 13.6774 -0.7573 1.1148 0
M  V30 53 H 13.2117 -2.1691 -0.8565 0
M  V30 54 H 9.0867 -1.3652 -0.6105 0
M  V30 55 H 12.8457 0.6983 2.9226 0
M  V30 56 H 10.9765 1.8206 4.0626 0
M  V30 57 H 8.6786 1.6037 3.2168 0
M  V30 58 H 7.0403 -0.6616 2.8691 0
M  V30 59 H 4.7108 -0.7278 2.0734 0
M  V30 60 H -5.5683 1.5019 -2.4812 0
M  V30 61 H -8.0178 1.4569 -2.2349 0
M  V30 62 H -8.3931 0.6870 1.7704 0
M  V30 63 H -11.9990 0.9189 3.9294 0
M  V30 END ATOM
M  V30 BEGIN BOND
M  V30 1 2 1 2
M  V30 2 1 2 3
M  V30 3 1 3 4
M  V30 4 2 4 5
M  V30 5 1 5 6
M  V30 6 2 6 7
M  V30 7 1 4 8
M  V30 8 2 8 9
M  V30 9 1 9 10
M  V30 10 2 10 11
M  V30 11 1 11 12
M  V30 12 3 12 13
M  V30 13 1 13 14
M  V30 14 2 14 15
M  V30 15 1 15 16
M  V30 16 2 16 17
M  V30 17 1 17 18
M  V30 18 3 18 19
M  V30 19 1 19 20
M  V30 20 2 20 21
M  V30 21 1 21 22
M  V30 22 2 22 23
M  V30 23 1 23 24
M  V30 24 1 24 25
M  V30 25 1 25 26
M  V30 26 2 26 27
M  V30 27 1 27 28
M  V30 28 2 28 29
M  V30 29 1 29 30
M  V30 30 1 26 31
M  V30 31 2 31 32
M  V30 32 1 32 33
M  V30 33 1 23 34
M  V30 34 2 34 35
M  V30 35 1 17 36
M  V30 36 1 11 37
M  V30 37 2 37 38
M  V30 38 2 3 39
M  V30 39 1 39 40
M  V30 40 2 40 41
M  V30 41 1 41 1
M  V30 42 1 7 2
M  V30 43 1 38 8
M  V30 44 1 36 14
M  V30 45 1 35 20
M  V30 46 2 33 24
M  V30 47 2 30 25
M  V30 48 1 1 42
M  V30 49 1 5 43
M  V30 50 1 6 44
M  V30 51 1 7 45
M  V30 52 1 9 46
M  V30 53 1 10 47
M  V30 54 1 15 48
M  V30 55 1 16 49
M  V30 56 1 21 50
M  V30 57 1 22 51
M  V30 58 1 27 52
M  V30 59 1 28 53
M  V30 60 1 30 54
M  V30 61 1 31 55
M  V30 62 1 32 56
M  V30 63 1 33 57
M  V30 64 1 34 58
M  V30 65 1 35 59
M  V30 66 1 37 60
M  V30 67 1 38 61
M  V30 68 1 39 62
M  V30 69 1 41 63
M  V30 END BOND
M  V30 END CTAB
M  END

$$$$
