
     RDKit          3D

  0  0  0  0  0  0  0  0  0  0999 V3000
M  V30 BEGIN CTAB
M  V30 COUNTS 65 71 0 0 0
M  V30 BEGIN ATOM
M  V30 1 C 10.8838 -1.8159 -0.7255 0
M  V30 2 C 10.1260 -2.2202 -1.8234 0
M  V30 3 N 8.8797 -1.7171 -2.0148 0
M  V30 4 C 8.3233 -0.8244 -1.1543 0
M  V30 5 C 9.0340 -0.3927 -0.0158 0
M  V30 6 C 8.4956 0.5370 0.9119 0
M  V30 7 C 7.1168 1.0648 0.7997 0
M  V30 8 C 6.0145 0.1995 0.8944 0
M  V30 9 C 4.7133 0.7036 0.8088 0
M  V30 10 C 4.5024 2.0775 0.6381 0
M  V30 11 C 3.1629 2.5961 0.5498 0
M  V30 12 C 2.0410 3.0307 0.4754 0
M  V30 13 C 0.7039 3.5489 0.3865 0
M  V30 14 N -0.3418 2.6914 0.2383 0
M  V30 15 C -1.6247 3.1352 0.1492 0
M  V30 16 C -2.6949 2.1893 -0.0068 0
M  V30 17 C -3.5928 1.3958 -0.1377 0
M  V30 18 C -4.6650 0.4488 -0.2940 0
M  V30 19 C -4.3865 -0.9222 -0.3602 0
M  V30 20 C -5.4279 -1.8427 -0.5122 0
M  V30 21 C -6.7580 -1.4002 -0.5898 0
M  V30 22 C -7.8570 -2.3752 -0.7737 0
M  V30 23 C -7.8606 -3.1597 -1.9389 0
M  V30 24 C -8.8930 -4.0646 -2.1864 0
M  V30 25 C -9.9382 -4.2059 -1.2747 0
M  V30 26 C -9.9525 -3.4489 -0.0951 0
M  V30 27 C -10.9943 -3.6041 0.8288 0
M  V30 28 C -10.9818 -2.8619 2.0086 0
M  V30 29 N -9.9628 -2.0015 2.2627 0
M  V30 30 C -8.9374 -1.8213 1.3891 0
M  V30 31 C -8.9053 -2.5299 0.1707 0
M  V30 32 C -7.0309 -0.0234 -0.5368 0
M  V30 33 C -5.9889 0.8963 -0.3844 0
M  V30 34 C -1.8954 4.5071 0.2097 0
M  V30 35 C -0.8364 5.4049 0.3616 0
M  V30 36 C 0.4731 4.9279 0.4510 0
M  V30 37 C 5.5979 2.9462 0.5573 0
M  V30 38 C 6.8997 2.4429 0.6424 0
M  V30 39 C 9.2856 0.9672 1.9907 0
M  V30 40 C 10.5771 0.4716 2.1713 0
M  V30 41 C 11.1048 -0.4589 1.2775 0
M  V30 42 C 10.3461 -0.8937 0.1820 0
M  V30 43 H 11.8818 -2.2156 -0.5902 0
M  V30 44 H 10.5331 -2.9301 -2.5310 0
M  V30 45 H 7.3341 -0.4497 -1.3762 0
M  V30 46 H 6.1644 -0.8639 1.0362 0
M  V30 47 H 3.8727 0.0236 0.8786 0
M  V30 48 H -3.3654 -1.2787 -0.2956 0
M  V30 49 H -5.1992 -2.9003 -0.5627 0
M  V30 50 H -7.0669 -3.0570 -2.6693 0
M  V30 51 H -8.8855 -4.6557 -3.0931 0
M  V30 52 H -10.7317 -4.9124 -1.4879 0
M  V30 53 H -11.8070 -4.2963 0.6429 0
M  V30 54 H -11.7805 -2.9762 2.7292 0
M  V30 55 H -8.1488 -1.1345 1.6621 0
M  V30 56 H -8.0497 0.3358 -0.6155 0
M  V30 57 H -6.2149 1.9550 -0.3404 0
M  V30 58 H -2.9115 4.8765 0.1402 0
M  V30 59 H -1.0304 6.4686 0.4098 0
M  V30 60 H 1.2950 5.6238 0.5687 0
M  V30 61 H 5.4458 4.0113 0.4296 0
M  V30 62 H 7.7385 3.1253 0.5788 0
M  V30 63 H 8.8920 1.6786 2.7069 0
M  V30 64 H 11.1700 0.8070 3.0125 0
M  V30 65 H 12.1090 -0.8332 1.4379 0
M  V30 END ATOM
M  V30 BEGIN BOND
M  V30 1 2 1 2
M  V30 2 1 2 3
M  V30 3 2 3 4
M  V30 4 1 4 5
M  V30 5 2 5 6
M  V30 6 1 6 7
M  V30 7 2 7 8
M  V30 8 1 8 9
M  V30 9 2 9 10
M  V30 10 1 10 11
M  V30 11 3 11 12
M  V30 12 1 12 13
M  V30 13 2 13 14
M  V30 14 1 14 15
M  V30 15 1 15 16
M  V30 16 3 16 17
M  V30 17 1 17 18
M  V30 18 2 18 19
M  V30 19 1 19 20
M  V30 20 2 20 21
M  V30 21 1 21 22
M  V30 22 2 22 23
M  V30 23 1 23 24
M  V30 24 2 24 25
M  V30 25 1 25 26
M  V30 26 2 26 27
M  V30 27 1 27 28
M  V30 28 2 28 29
M  V30 29 1 29 30
M  V30 30 2 30 31
M  V30 31 1 21 32
M  V30 32 2 32 33
M  V30 33 2 15 34
M  V30 34 1 34 35
M  V30 35 2 35 36
M  V30 36 1 10 37
M  V30 37 2 37 38
M  V30 38 1 6 39
M  V30 39 2 39 40
M  V30 40 1 40 41
M  V30 41 2 41 42
M  V30 42 1 42 1
M  V30 43 1 42 5
M  V30 44 1 38 7
M  V30 45 1 36 13
M  V30 46 1 33 18
M  V30 47 1 31 22
M  V30 48 1 31 26
M  V30 49 1 1 43
M  V30 50 1 2 44
M  V30 51 1 4 45
M  V30 52 1 8 46
M  V30 53 1 9 47
M  V30 54 1 19 48
M  V30 55 1 20 49
M  V30 56 1 23 50
M  V30 57 1 24 51
M  V30 58 1 25 52
M  V30 59 1 27 53
M  V30 60 1 28 54
M  V30 61 1 30 55
M  V30 62 1 32 56
M  V30 63 1 33 57
M  V30 64 1 34 58
M  V30 65 1 35 59
M  V30 66 1 36 60
M  V30 67 1 37 61
M  V30 68 1 38 62
M  V30 69 1 39 63
M  V30 70 1 40 64
M  V30 71 1 41 65
M  V30 END BOND
M  V30 END CTAB
M  END

$$$$
