
     RDKit          3D

  0  0  0  0  0  0  0  0  0  0999 V3000
M  V30 BEGIN CTAB
M  V30 COUNTS 66 72 0 0 0
M  V30 BEGIN ATOM
M  V30 1 C 10.7466 2.2474 2.2422 0
M  V30 2 C 10.1916 1.9318 0.9950 0
M  V30 3 C 8.9824 1.1935 0.9278 0
M  V30 4 C 8.4246 0.8832 -0.3400 0
M  V30 5 C 9.0988 1.2861 -1.5046 0
M  V30 6 C 10.2907 2.0067 -1.4256 0
M  V30 7 C 10.8331 2.3352 -0.1841 0
M  V30 8 C 7.1409 0.1607 -0.4889 0
M  V30 9 C 7.0997 -1.0743 -1.1553 0
M  V30 10 C 5.8852 -1.7483 -1.3162 0
M  V30 11 C 4.7007 -1.1891 -0.8206 0
M  V30 12 C 3.4511 -1.8830 -0.9867 0
M  V30 13 C 2.4041 -2.4642 -1.1257 0
M  V30 14 C 1.1540 -3.1574 -1.2916 0
M  V30 15 C 1.1451 -4.5139 -1.6425 0
M  V30 16 C -0.0698 -5.1872 -1.8036 0
M  V30 17 C -1.2782 -4.5092 -1.6153 0
M  V30 18 C -1.2740 -3.1527 -1.2645 0
M  V30 19 C -2.5173 -2.4545 -1.0709 0
M  V30 20 C -3.5586 -1.8691 -0.9086 0
M  V30 21 C -4.8012 -1.1698 -0.7150 0
M  V30 22 C -4.8003 0.2113 -0.4829 0
M  V30 23 C -6.0074 0.8913 -0.2954 0
M  V30 24 C -7.2258 0.1934 -0.3285 0
M  V30 25 C -8.5071 0.9143 -0.1531 0
M  V30 26 C -8.8351 1.6067 1.0419 0
M  V30 27 C -10.0597 2.3180 1.1211 0
M  V30 28 C -10.3892 3.0090 2.2946 0
M  V30 29 C -9.5137 2.9770 3.3788 0
M  V30 30 N -8.3547 2.2746 3.2995 0
M  V30 31 C -7.9992 1.5956 2.1771 0
M  V30 32 C -10.9407 2.3204 0.0310 0
M  V30 33 C -10.6215 1.6190 -1.1307 0
M  V30 34 C -9.4174 0.9207 -1.2228 0
M  V30 35 C -7.2220 -1.1888 -0.5749 0
M  V30 36 C -6.0143 -1.8679 -0.7626 0
M  V30 37 C -0.0567 -2.4768 -1.1026 0
M  V30 38 C 4.7344 0.0489 -0.1670 0
M  V30 39 C 5.9482 0.7237 -0.0059 0
M  V30 40 C 8.3943 0.7714 2.1376 0
M  V30 41 N 8.9644 1.0933 3.3285 0
M  V30 42 C 10.1096 1.8183 3.4054 0
M  V30 43 H 11.6665 2.8153 2.3165 0
M  V30 44 H 8.6892 1.0553 -2.4807 0
M  V30 45 H 10.7936 2.3171 -2.3324 0
M  V30 46 H 11.7583 2.8981 -0.1455 0
M  V30 47 H 8.0087 -1.5172 -1.5436 0
M  V30 48 H 5.8695 -2.7036 -1.8272 0
M  V30 49 H 2.0752 -5.0493 -1.7910 0
M  V30 50 H -0.0749 -6.2350 -2.0747 0
M  V30 51 H -2.2135 -5.0409 -1.7430 0
M  V30 52 H -3.8678 0.7619 -0.4502 0
M  V30 53 H -5.9941 1.9612 -0.1266 0
M  V30 54 H -11.3168 3.5634 2.3744 0
M  V30 55 H -9.7602 3.5055 4.2900 0
M  V30 56 H -7.0713 1.0416 2.1879 0
M  V30 57 H -11.8799 2.8587 0.0803 0
M  V30 58 H -11.3085 1.6209 -1.9672 0
M  V30 59 H -9.1849 0.3951 -2.1414 0
M  V30 60 H -8.1535 -1.7401 -0.6146 0
M  V30 61 H -6.0263 -2.9357 -0.9457 0
M  V30 62 H -0.0516 -1.4268 -0.8310 0
M  V30 63 H 3.8230 0.4933 0.2148 0
M  V30 64 H 5.9598 1.6852 0.4928 0
M  V30 65 H 7.4924 0.1759 2.1477 0
M  V30 66 H 10.5314 2.0550 4.3731 0
M  V30 END ATOM
M  V30 BEGIN BOND
M  V30 1 2 1 2
M  V30 2 1 2 3
M  V30 3 1 3 4
M  V30 4 2 4 5
M  V30 5 1 5 6
M  V30 6 2 6 7
M  V30 7 1 4 8
M  V30 8 2 8 9
M  V30 9 1 9 10
M  V30 10 2 10 11
M  V30 11 1 11 12
M  V30 12 3 12 13
M  V30 13 1 13 14
M  V30 14 2 14 15
M  V30 15 1 15 16
M  V30 16 2 16 17
M  V30 17 1 17 18
M  V30 18 1 18 19
M  V30 19 3 19 20
M  V30 20 1 20 21
M  V30 21 2 21 22
M  V30 22 1 22 23
M  V30 23 2 23 24
M  V30 24 1 24 25
M  V30 25 1 25 26
M  V30 26 1 26 27
M  V30 27 2 27 28
M  V30 28 1 28 29
M  V30 29 2 29 30
M  V30 30 1 30 31
M  V30 31 1 27 32
M  V30 32 2 32 33
M  V30 33 1 33 34
M  V30 34 1 24 35
M  V30 35 2 35 36
M  V30 36 2 18 37
M  V30 37 1 11 38
M  V30 38 2 38 39
M  V30 39 2 3 40
M  V30 40 1 40 41
M  V30 41 2 41 42
M  V30 42 1 42 1
M  V30 43 1 7 2
M  V30 44 1 39 8
M  V30 45 1 37 14
M  V30 46 1 36 21
M  V30 47 2 34 25
M  V30 48 2 31 26
M  V30 49 1 1 43
M  V30 50 1 5 44
M  V30 51 1 6 45
M  V30 52 1 7 46
M  V30 53 1 9 47
M  V30 54 1 10 48
M  V30 55 1 15 49
M  V30 56 1 16 50
M  V30 57 1 17 51
M  V30 58 1 22 52
M  V30 59 1 23 53
M  V30 60 1 28 54
M  V30 61 1 29 55
M  V30 62 1 31 56
M  V30 63 1 32 57
M  V30 64 1 33 58
M  V30 65 1 34 59
M  V30 66 1 35 60
M  V30 67 1 36 61
M  V30 68 1 37 62
M  V30 69 1 38 63
M  V30 70 1 39 64
M  V30 71 1 40 65
M  V30 72 1 42 66
M  V30 END BOND
M  V30 END CTAB
M  END

$$$$
